<?xml version="1.0" ?>
<connections>
    <connection from="road_4446_18756" to="road_18756_764" fromLane="0" toLane="0"/>
    <connection from="road_4446_18756" to="road_18756_764" fromLane="0" toLane="1"/>
    <connection from="road_4446_18756" to="road_18756_764" fromLane="0" toLane="2"/>
    <connection from="road_4446_18756" to="road_18756_764" fromLane="0" toLane="3"/>
    <connection from="road_4446_18756" to="road_18756_764" fromLane="0" toLane="4"/>
    <connection from="road_4446_18756" to="road_18756_1171" fromLane="1" toLane="0"/>
    <connection from="road_4446_18756" to="road_18756_1171" fromLane="1" toLane="1"/>
    <connection from="road_4446_18756" to="road_18756_1171" fromLane="1" toLane="2"/>
    <connection from="road_4446_18756" to="road_18756_627" fromLane="2" toLane="0"/>
    <connection from="road_4446_18756" to="road_18756_627" fromLane="2" toLane="1"/>
    <connection from="road_4446_18756" to="road_18756_627" fromLane="2" toLane="2"/>
    <connection from="road_4446_18756" to="road_18756_627" fromLane="2" toLane="3"/>
    <connection from="road_4446_18756" to="road_18756_627" fromLane="2" toLane="4"/>
    <connection from="road_764_18756" to="road_18756_1171" fromLane="0" toLane="0"/>
    <connection from="road_764_18756" to="road_18756_1171" fromLane="0" toLane="1"/>
    <connection from="road_764_18756" to="road_18756_1171" fromLane="0" toLane="2"/>
    <connection from="road_764_18756" to="road_18756_627" fromLane="1" toLane="0"/>
    <connection from="road_764_18756" to="road_18756_627" fromLane="1" toLane="1"/>
    <connection from="road_764_18756" to="road_18756_627" fromLane="1" toLane="2"/>
    <connection from="road_764_18756" to="road_18756_627" fromLane="1" toLane="3"/>
    <connection from="road_764_18756" to="road_18756_627" fromLane="1" toLane="4"/>
    <connection from="road_764_18756" to="road_18756_627" fromLane="2" toLane="0"/>
    <connection from="road_764_18756" to="road_18756_627" fromLane="2" toLane="1"/>
    <connection from="road_764_18756" to="road_18756_627" fromLane="2" toLane="2"/>
    <connection from="road_764_18756" to="road_18756_627" fromLane="2" toLane="3"/>
    <connection from="road_764_18756" to="road_18756_627" fromLane="2" toLane="4"/>
    <connection from="road_764_18756" to="road_18756_627" fromLane="3" toLane="0"/>
    <connection from="road_764_18756" to="road_18756_627" fromLane="3" toLane="1"/>
    <connection from="road_764_18756" to="road_18756_627" fromLane="3" toLane="2"/>
    <connection from="road_764_18756" to="road_18756_627" fromLane="3" toLane="3"/>
    <connection from="road_764_18756" to="road_18756_627" fromLane="3" toLane="4"/>
    <connection from="road_764_18756" to="road_18756_4446" fromLane="4" toLane="0"/>
    <connection from="road_764_18756" to="road_18756_4446" fromLane="4" toLane="1"/>
    <connection from="road_764_18756" to="road_18756_4446" fromLane="4" toLane="2"/>
    <connection from="road_1171_18756" to="road_18756_627" fromLane="0" toLane="0"/>
    <connection from="road_1171_18756" to="road_18756_627" fromLane="0" toLane="1"/>
    <connection from="road_1171_18756" to="road_18756_627" fromLane="0" toLane="2"/>
    <connection from="road_1171_18756" to="road_18756_627" fromLane="0" toLane="3"/>
    <connection from="road_1171_18756" to="road_18756_627" fromLane="0" toLane="4"/>
    <connection from="road_1171_18756" to="road_18756_4446" fromLane="1" toLane="0"/>
    <connection from="road_1171_18756" to="road_18756_4446" fromLane="1" toLane="1"/>
    <connection from="road_1171_18756" to="road_18756_4446" fromLane="1" toLane="2"/>
    <connection from="road_1171_18756" to="road_18756_764" fromLane="2" toLane="0"/>
    <connection from="road_1171_18756" to="road_18756_764" fromLane="2" toLane="1"/>
    <connection from="road_1171_18756" to="road_18756_764" fromLane="2" toLane="2"/>
    <connection from="road_1171_18756" to="road_18756_764" fromLane="2" toLane="3"/>
    <connection from="road_1171_18756" to="road_18756_764" fromLane="2" toLane="4"/>
    <connection from="road_627_18756" to="road_18756_4446" fromLane="0" toLane="0"/>
    <connection from="road_627_18756" to="road_18756_4446" fromLane="0" toLane="1"/>
    <connection from="road_627_18756" to="road_18756_4446" fromLane="0" toLane="2"/>
    <connection from="road_627_18756" to="road_18756_764" fromLane="1" toLane="0"/>
    <connection from="road_627_18756" to="road_18756_764" fromLane="1" toLane="1"/>
    <connection from="road_627_18756" to="road_18756_764" fromLane="1" toLane="2"/>
    <connection from="road_627_18756" to="road_18756_764" fromLane="1" toLane="3"/>
    <connection from="road_627_18756" to="road_18756_764" fromLane="1" toLane="4"/>
    <connection from="road_627_18756" to="road_18756_764" fromLane="2" toLane="0"/>
    <connection from="road_627_18756" to="road_18756_764" fromLane="2" toLane="1"/>
    <connection from="road_627_18756" to="road_18756_764" fromLane="2" toLane="2"/>
    <connection from="road_627_18756" to="road_18756_764" fromLane="2" toLane="3"/>
    <connection from="road_627_18756" to="road_18756_764" fromLane="2" toLane="4"/>
    <connection from="road_627_18756" to="road_18756_764" fromLane="3" toLane="0"/>
    <connection from="road_627_18756" to="road_18756_764" fromLane="3" toLane="1"/>
    <connection from="road_627_18756" to="road_18756_764" fromLane="3" toLane="2"/>
    <connection from="road_627_18756" to="road_18756_764" fromLane="3" toLane="3"/>
    <connection from="road_627_18756" to="road_18756_764" fromLane="3" toLane="4"/>
    <connection from="road_627_18756" to="road_18756_1171" fromLane="4" toLane="0"/>
    <connection from="road_627_18756" to="road_18756_1171" fromLane="4" toLane="1"/>
    <connection from="road_627_18756" to="road_18756_1171" fromLane="4" toLane="2"/>
    <connection from="road_767_20870" to="road_20870_20874" fromLane="0" toLane="0"/>
    <connection from="road_767_20870" to="road_20870_20874" fromLane="0" toLane="1"/>
    <connection from="road_767_20870" to="road_20870_20874" fromLane="0" toLane="2"/>
    <connection from="road_767_20870" to="road_20870_20874" fromLane="0" toLane="3"/>
    <connection from="road_767_20870" to="road_20870_20874" fromLane="0" toLane="4"/>
    <connection from="road_767_20870" to="road_20870_20871" fromLane="1" toLane="0"/>
    <connection from="road_767_20870" to="road_20870_20871" fromLane="1" toLane="1"/>
    <connection from="road_767_20870" to="road_20870_20871" fromLane="1" toLane="2"/>
    <connection from="road_767_20870" to="road_20870_764" fromLane="2" toLane="0"/>
    <connection from="road_767_20870" to="road_20870_764" fromLane="2" toLane="1"/>
    <connection from="road_767_20870" to="road_20870_764" fromLane="2" toLane="2"/>
    <connection from="road_767_20870" to="road_20870_764" fromLane="2" toLane="3"/>
    <connection from="road_767_20870" to="road_20870_764" fromLane="2" toLane="4"/>
    <connection from="road_20874_20870" to="road_20870_20871" fromLane="0" toLane="0"/>
    <connection from="road_20874_20870" to="road_20870_20871" fromLane="0" toLane="1"/>
    <connection from="road_20874_20870" to="road_20870_20871" fromLane="0" toLane="2"/>
    <connection from="road_20874_20870" to="road_20870_764" fromLane="1" toLane="0"/>
    <connection from="road_20874_20870" to="road_20870_764" fromLane="1" toLane="1"/>
    <connection from="road_20874_20870" to="road_20870_764" fromLane="1" toLane="2"/>
    <connection from="road_20874_20870" to="road_20870_764" fromLane="1" toLane="3"/>
    <connection from="road_20874_20870" to="road_20870_764" fromLane="1" toLane="4"/>
    <connection from="road_20874_20870" to="road_20870_764" fromLane="2" toLane="0"/>
    <connection from="road_20874_20870" to="road_20870_764" fromLane="2" toLane="1"/>
    <connection from="road_20874_20870" to="road_20870_764" fromLane="2" toLane="2"/>
    <connection from="road_20874_20870" to="road_20870_764" fromLane="2" toLane="3"/>
    <connection from="road_20874_20870" to="road_20870_764" fromLane="2" toLane="4"/>
    <connection from="road_20874_20870" to="road_20870_764" fromLane="3" toLane="0"/>
    <connection from="road_20874_20870" to="road_20870_764" fromLane="3" toLane="1"/>
    <connection from="road_20874_20870" to="road_20870_764" fromLane="3" toLane="2"/>
    <connection from="road_20874_20870" to="road_20870_764" fromLane="3" toLane="3"/>
    <connection from="road_20874_20870" to="road_20870_764" fromLane="3" toLane="4"/>
    <connection from="road_20874_20870" to="road_20870_767" fromLane="4" toLane="0"/>
    <connection from="road_20874_20870" to="road_20870_767" fromLane="4" toLane="1"/>
    <connection from="road_20874_20870" to="road_20870_767" fromLane="4" toLane="2"/>
    <connection from="road_20871_20870" to="road_20870_764" fromLane="0" toLane="0"/>
    <connection from="road_20871_20870" to="road_20870_764" fromLane="0" toLane="1"/>
    <connection from="road_20871_20870" to="road_20870_764" fromLane="0" toLane="2"/>
    <connection from="road_20871_20870" to="road_20870_764" fromLane="0" toLane="3"/>
    <connection from="road_20871_20870" to="road_20870_764" fromLane="0" toLane="4"/>
    <connection from="road_20871_20870" to="road_20870_767" fromLane="1" toLane="0"/>
    <connection from="road_20871_20870" to="road_20870_767" fromLane="1" toLane="1"/>
    <connection from="road_20871_20870" to="road_20870_767" fromLane="1" toLane="2"/>
    <connection from="road_20871_20870" to="road_20870_20874" fromLane="2" toLane="0"/>
    <connection from="road_20871_20870" to="road_20870_20874" fromLane="2" toLane="1"/>
    <connection from="road_20871_20870" to="road_20870_20874" fromLane="2" toLane="2"/>
    <connection from="road_20871_20870" to="road_20870_20874" fromLane="2" toLane="3"/>
    <connection from="road_20871_20870" to="road_20870_20874" fromLane="2" toLane="4"/>
    <connection from="road_764_20870" to="road_20870_767" fromLane="0" toLane="0"/>
    <connection from="road_764_20870" to="road_20870_767" fromLane="0" toLane="1"/>
    <connection from="road_764_20870" to="road_20870_767" fromLane="0" toLane="2"/>
    <connection from="road_764_20870" to="road_20870_20874" fromLane="1" toLane="0"/>
    <connection from="road_764_20870" to="road_20870_20874" fromLane="1" toLane="1"/>
    <connection from="road_764_20870" to="road_20870_20874" fromLane="1" toLane="2"/>
    <connection from="road_764_20870" to="road_20870_20874" fromLane="1" toLane="3"/>
    <connection from="road_764_20870" to="road_20870_20874" fromLane="1" toLane="4"/>
    <connection from="road_764_20870" to="road_20870_20874" fromLane="2" toLane="0"/>
    <connection from="road_764_20870" to="road_20870_20874" fromLane="2" toLane="1"/>
    <connection from="road_764_20870" to="road_20870_20874" fromLane="2" toLane="2"/>
    <connection from="road_764_20870" to="road_20870_20874" fromLane="2" toLane="3"/>
    <connection from="road_764_20870" to="road_20870_20874" fromLane="2" toLane="4"/>
    <connection from="road_764_20870" to="road_20870_20874" fromLane="3" toLane="0"/>
    <connection from="road_764_20870" to="road_20870_20874" fromLane="3" toLane="1"/>
    <connection from="road_764_20870" to="road_20870_20874" fromLane="3" toLane="2"/>
    <connection from="road_764_20870" to="road_20870_20874" fromLane="3" toLane="3"/>
    <connection from="road_764_20870" to="road_20870_20874" fromLane="3" toLane="4"/>
    <connection from="road_764_20870" to="road_20870_20871" fromLane="4" toLane="0"/>
    <connection from="road_764_20870" to="road_20870_20871" fromLane="4" toLane="1"/>
    <connection from="road_764_20870" to="road_20870_20871" fromLane="4" toLane="2"/>
    <connection from="road_20870_20871" to="road_20871_4424" fromLane="0" toLane="0"/>
    <connection from="road_20870_20871" to="road_20871_4424" fromLane="0" toLane="1"/>
    <connection from="road_20870_20871" to="road_20871_4424" fromLane="0" toLane="2"/>
    <connection from="road_20870_20871" to="road_20871_20872" fromLane="1" toLane="0"/>
    <connection from="road_20870_20871" to="road_20871_20872" fromLane="1" toLane="1"/>
    <connection from="road_20870_20871" to="road_20871_20872" fromLane="1" toLane="2"/>
    <connection from="road_20870_20871" to="road_20871_1172" fromLane="2" toLane="0"/>
    <connection from="road_20870_20871" to="road_20871_1172" fromLane="2" toLane="1"/>
    <connection from="road_20870_20871" to="road_20871_1172" fromLane="2" toLane="2"/>
    <connection from="road_4424_20871" to="road_20871_20872" fromLane="0" toLane="0"/>
    <connection from="road_4424_20871" to="road_20871_20872" fromLane="0" toLane="1"/>
    <connection from="road_4424_20871" to="road_20871_20872" fromLane="0" toLane="2"/>
    <connection from="road_4424_20871" to="road_20871_1172" fromLane="1" toLane="0"/>
    <connection from="road_4424_20871" to="road_20871_1172" fromLane="1" toLane="1"/>
    <connection from="road_4424_20871" to="road_20871_1172" fromLane="1" toLane="2"/>
    <connection from="road_4424_20871" to="road_20871_20870" fromLane="2" toLane="0"/>
    <connection from="road_4424_20871" to="road_20871_20870" fromLane="2" toLane="1"/>
    <connection from="road_4424_20871" to="road_20871_20870" fromLane="2" toLane="2"/>
    <connection from="road_20872_20871" to="road_20871_1172" fromLane="0" toLane="0"/>
    <connection from="road_20872_20871" to="road_20871_1172" fromLane="0" toLane="1"/>
    <connection from="road_20872_20871" to="road_20871_1172" fromLane="0" toLane="2"/>
    <connection from="road_20872_20871" to="road_20871_20870" fromLane="1" toLane="0"/>
    <connection from="road_20872_20871" to="road_20871_20870" fromLane="1" toLane="1"/>
    <connection from="road_20872_20871" to="road_20871_20870" fromLane="1" toLane="2"/>
    <connection from="road_20872_20871" to="road_20871_4424" fromLane="2" toLane="0"/>
    <connection from="road_20872_20871" to="road_20871_4424" fromLane="2" toLane="1"/>
    <connection from="road_20872_20871" to="road_20871_4424" fromLane="2" toLane="2"/>
    <connection from="road_1172_20871" to="road_20871_20870" fromLane="0" toLane="0"/>
    <connection from="road_1172_20871" to="road_20871_20870" fromLane="0" toLane="1"/>
    <connection from="road_1172_20871" to="road_20871_20870" fromLane="0" toLane="2"/>
    <connection from="road_1172_20871" to="road_20871_4424" fromLane="1" toLane="0"/>
    <connection from="road_1172_20871" to="road_20871_4424" fromLane="1" toLane="1"/>
    <connection from="road_1172_20871" to="road_20871_4424" fromLane="1" toLane="2"/>
    <connection from="road_1172_20871" to="road_20871_20872" fromLane="2" toLane="0"/>
    <connection from="road_1172_20871" to="road_20871_20872" fromLane="2" toLane="1"/>
    <connection from="road_1172_20871" to="road_20871_20872" fromLane="2" toLane="2"/>
    <connection from="road_1162_15059" to="road_15059_767" fromLane="0" toLane="0"/>
    <connection from="road_1162_15059" to="road_15059_767" fromLane="0" toLane="1"/>
    <connection from="road_1162_15059" to="road_15059_767" fromLane="0" toLane="2"/>
    <connection from="road_1162_15059" to="road_15059_764" fromLane="1" toLane="0"/>
    <connection from="road_1162_15059" to="road_15059_764" fromLane="1" toLane="1"/>
    <connection from="road_1162_15059" to="road_15059_764" fromLane="1" toLane="2"/>
    <connection from="road_1162_15059" to="road_15059_18757" fromLane="2" toLane="0"/>
    <connection from="road_1162_15059" to="road_15059_18757" fromLane="2" toLane="1"/>
    <connection from="road_1162_15059" to="road_15059_18757" fromLane="2" toLane="2"/>
    <connection from="road_767_15059" to="road_15059_764" fromLane="0" toLane="0"/>
    <connection from="road_767_15059" to="road_15059_764" fromLane="0" toLane="1"/>
    <connection from="road_767_15059" to="road_15059_764" fromLane="0" toLane="2"/>
    <connection from="road_767_15059" to="road_15059_18757" fromLane="1" toLane="0"/>
    <connection from="road_767_15059" to="road_15059_18757" fromLane="1" toLane="1"/>
    <connection from="road_767_15059" to="road_15059_18757" fromLane="1" toLane="2"/>
    <connection from="road_767_15059" to="road_15059_1162" fromLane="2" toLane="0"/>
    <connection from="road_767_15059" to="road_15059_1162" fromLane="2" toLane="1"/>
    <connection from="road_767_15059" to="road_15059_1162" fromLane="2" toLane="2"/>
    <connection from="road_764_15059" to="road_15059_18757" fromLane="0" toLane="0"/>
    <connection from="road_764_15059" to="road_15059_18757" fromLane="0" toLane="1"/>
    <connection from="road_764_15059" to="road_15059_18757" fromLane="0" toLane="2"/>
    <connection from="road_764_15059" to="road_15059_1162" fromLane="1" toLane="0"/>
    <connection from="road_764_15059" to="road_15059_1162" fromLane="1" toLane="1"/>
    <connection from="road_764_15059" to="road_15059_1162" fromLane="1" toLane="2"/>
    <connection from="road_764_15059" to="road_15059_767" fromLane="2" toLane="0"/>
    <connection from="road_764_15059" to="road_15059_767" fromLane="2" toLane="1"/>
    <connection from="road_764_15059" to="road_15059_767" fromLane="2" toLane="2"/>
    <connection from="road_18757_15059" to="road_15059_1162" fromLane="0" toLane="0"/>
    <connection from="road_18757_15059" to="road_15059_1162" fromLane="0" toLane="1"/>
    <connection from="road_18757_15059" to="road_15059_1162" fromLane="0" toLane="2"/>
    <connection from="road_18757_15059" to="road_15059_767" fromLane="1" toLane="0"/>
    <connection from="road_18757_15059" to="road_15059_767" fromLane="1" toLane="1"/>
    <connection from="road_18757_15059" to="road_15059_767" fromLane="1" toLane="2"/>
    <connection from="road_18757_15059" to="road_15059_764" fromLane="2" toLane="0"/>
    <connection from="road_18757_15059" to="road_15059_764" fromLane="2" toLane="1"/>
    <connection from="road_18757_15059" to="road_15059_764" fromLane="2" toLane="2"/>
    <connection from="road_764_1172" to="road_1172_20871" fromLane="0" toLane="0"/>
    <connection from="road_764_1172" to="road_1172_20871" fromLane="0" toLane="1"/>
    <connection from="road_764_1172" to="road_1172_20871" fromLane="0" toLane="2"/>
    <connection from="road_764_1172" to="road_1172_1164" fromLane="1" toLane="0"/>
    <connection from="road_764_1172" to="road_1172_1164" fromLane="1" toLane="1"/>
    <connection from="road_764_1172" to="road_1172_1164" fromLane="1" toLane="2"/>
    <connection from="road_764_1172" to="road_1172_1171" fromLane="2" toLane="0"/>
    <connection from="road_764_1172" to="road_1172_1171" fromLane="2" toLane="1"/>
    <connection from="road_764_1172" to="road_1172_1171" fromLane="2" toLane="2"/>
    <connection from="road_20871_1172" to="road_1172_1164" fromLane="0" toLane="0"/>
    <connection from="road_20871_1172" to="road_1172_1164" fromLane="0" toLane="1"/>
    <connection from="road_20871_1172" to="road_1172_1164" fromLane="0" toLane="2"/>
    <connection from="road_20871_1172" to="road_1172_1171" fromLane="1" toLane="0"/>
    <connection from="road_20871_1172" to="road_1172_1171" fromLane="1" toLane="1"/>
    <connection from="road_20871_1172" to="road_1172_1171" fromLane="1" toLane="2"/>
    <connection from="road_20871_1172" to="road_1172_764" fromLane="2" toLane="0"/>
    <connection from="road_20871_1172" to="road_1172_764" fromLane="2" toLane="1"/>
    <connection from="road_20871_1172" to="road_1172_764" fromLane="2" toLane="2"/>
    <connection from="road_1164_1172" to="road_1172_1171" fromLane="0" toLane="0"/>
    <connection from="road_1164_1172" to="road_1172_1171" fromLane="0" toLane="1"/>
    <connection from="road_1164_1172" to="road_1172_1171" fromLane="0" toLane="2"/>
    <connection from="road_1164_1172" to="road_1172_764" fromLane="1" toLane="0"/>
    <connection from="road_1164_1172" to="road_1172_764" fromLane="1" toLane="1"/>
    <connection from="road_1164_1172" to="road_1172_764" fromLane="1" toLane="2"/>
    <connection from="road_1164_1172" to="road_1172_20871" fromLane="2" toLane="0"/>
    <connection from="road_1164_1172" to="road_1172_20871" fromLane="2" toLane="1"/>
    <connection from="road_1164_1172" to="road_1172_20871" fromLane="2" toLane="2"/>
    <connection from="road_1171_1172" to="road_1172_764" fromLane="0" toLane="0"/>
    <connection from="road_1171_1172" to="road_1172_764" fromLane="0" toLane="1"/>
    <connection from="road_1171_1172" to="road_1172_764" fromLane="0" toLane="2"/>
    <connection from="road_1171_1172" to="road_1172_20871" fromLane="1" toLane="0"/>
    <connection from="road_1171_1172" to="road_1172_20871" fromLane="1" toLane="1"/>
    <connection from="road_1171_1172" to="road_1172_20871" fromLane="1" toLane="2"/>
    <connection from="road_1171_1172" to="road_1172_1164" fromLane="2" toLane="0"/>
    <connection from="road_1171_1172" to="road_1172_1164" fromLane="2" toLane="1"/>
    <connection from="road_1171_1172" to="road_1172_1164" fromLane="2" toLane="2"/>
    <connection from="road_18756_1171" to="road_1171_0" fromLane="0" toLane="0"/>
    <connection from="road_18756_1171" to="road_1171_0" fromLane="0" toLane="1"/>
    <connection from="road_18756_1171" to="road_1171_0" fromLane="0" toLane="2"/>
    <connection from="road_18756_1171" to="road_1171_1172" fromLane="1" toLane="0"/>
    <connection from="road_18756_1171" to="road_1171_1172" fromLane="1" toLane="1"/>
    <connection from="road_18756_1171" to="road_1171_1172" fromLane="1" toLane="2"/>
    <connection from="road_18756_1171" to="road_1171_18755" fromLane="2" toLane="0"/>
    <connection from="road_18756_1171" to="road_1171_18755" fromLane="2" toLane="1"/>
    <connection from="road_18756_1171" to="road_1171_18755" fromLane="2" toLane="2"/>
    <connection from="road_0_1171" to="road_1171_1172" fromLane="0" toLane="0"/>
    <connection from="road_0_1171" to="road_1171_1172" fromLane="0" toLane="1"/>
    <connection from="road_0_1171" to="road_1171_1172" fromLane="0" toLane="2"/>
    <connection from="road_0_1171" to="road_1171_18755" fromLane="1" toLane="0"/>
    <connection from="road_0_1171" to="road_1171_18755" fromLane="1" toLane="1"/>
    <connection from="road_0_1171" to="road_1171_18755" fromLane="1" toLane="2"/>
    <connection from="road_0_1171" to="road_1171_18756" fromLane="2" toLane="0"/>
    <connection from="road_0_1171" to="road_1171_18756" fromLane="2" toLane="1"/>
    <connection from="road_0_1171" to="road_1171_18756" fromLane="2" toLane="2"/>
    <connection from="road_1172_1171" to="road_1171_18755" fromLane="0" toLane="0"/>
    <connection from="road_1172_1171" to="road_1171_18755" fromLane="0" toLane="1"/>
    <connection from="road_1172_1171" to="road_1171_18755" fromLane="0" toLane="2"/>
    <connection from="road_1172_1171" to="road_1171_18756" fromLane="1" toLane="0"/>
    <connection from="road_1172_1171" to="road_1171_18756" fromLane="1" toLane="1"/>
    <connection from="road_1172_1171" to="road_1171_18756" fromLane="1" toLane="2"/>
    <connection from="road_1172_1171" to="road_1171_0" fromLane="2" toLane="0"/>
    <connection from="road_1172_1171" to="road_1171_0" fromLane="2" toLane="1"/>
    <connection from="road_1172_1171" to="road_1171_0" fromLane="2" toLane="2"/>
    <connection from="road_18755_1171" to="road_1171_18756" fromLane="0" toLane="0"/>
    <connection from="road_18755_1171" to="road_1171_18756" fromLane="0" toLane="1"/>
    <connection from="road_18755_1171" to="road_1171_18756" fromLane="0" toLane="2"/>
    <connection from="road_18755_1171" to="road_1171_0" fromLane="1" toLane="0"/>
    <connection from="road_18755_1171" to="road_1171_0" fromLane="1" toLane="1"/>
    <connection from="road_18755_1171" to="road_1171_0" fromLane="1" toLane="2"/>
    <connection from="road_18755_1171" to="road_1171_1172" fromLane="2" toLane="0"/>
    <connection from="road_18755_1171" to="road_1171_1172" fromLane="2" toLane="1"/>
    <connection from="road_18755_1171" to="road_1171_1172" fromLane="2" toLane="2"/>
    <connection from="road_15059_764" to="road_764_20870" fromLane="0" toLane="0"/>
    <connection from="road_15059_764" to="road_764_20870" fromLane="0" toLane="1"/>
    <connection from="road_15059_764" to="road_764_20870" fromLane="0" toLane="2"/>
    <connection from="road_15059_764" to="road_764_20870" fromLane="0" toLane="3"/>
    <connection from="road_15059_764" to="road_764_20870" fromLane="0" toLane="4"/>
    <connection from="road_15059_764" to="road_764_1172" fromLane="1" toLane="0"/>
    <connection from="road_15059_764" to="road_764_1172" fromLane="1" toLane="1"/>
    <connection from="road_15059_764" to="road_764_1172" fromLane="1" toLane="2"/>
    <connection from="road_15059_764" to="road_764_18756" fromLane="2" toLane="0"/>
    <connection from="road_15059_764" to="road_764_18756" fromLane="2" toLane="1"/>
    <connection from="road_15059_764" to="road_764_18756" fromLane="2" toLane="2"/>
    <connection from="road_15059_764" to="road_764_18756" fromLane="2" toLane="3"/>
    <connection from="road_15059_764" to="road_764_18756" fromLane="2" toLane="4"/>
    <connection from="road_20870_764" to="road_764_1172" fromLane="0" toLane="0"/>
    <connection from="road_20870_764" to="road_764_1172" fromLane="0" toLane="1"/>
    <connection from="road_20870_764" to="road_764_1172" fromLane="0" toLane="2"/>
    <connection from="road_20870_764" to="road_764_18756" fromLane="1" toLane="0"/>
    <connection from="road_20870_764" to="road_764_18756" fromLane="1" toLane="1"/>
    <connection from="road_20870_764" to="road_764_18756" fromLane="1" toLane="2"/>
    <connection from="road_20870_764" to="road_764_18756" fromLane="1" toLane="3"/>
    <connection from="road_20870_764" to="road_764_18756" fromLane="1" toLane="4"/>
    <connection from="road_20870_764" to="road_764_18756" fromLane="2" toLane="0"/>
    <connection from="road_20870_764" to="road_764_18756" fromLane="2" toLane="1"/>
    <connection from="road_20870_764" to="road_764_18756" fromLane="2" toLane="2"/>
    <connection from="road_20870_764" to="road_764_18756" fromLane="2" toLane="3"/>
    <connection from="road_20870_764" to="road_764_18756" fromLane="2" toLane="4"/>
    <connection from="road_20870_764" to="road_764_18756" fromLane="3" toLane="0"/>
    <connection from="road_20870_764" to="road_764_18756" fromLane="3" toLane="1"/>
    <connection from="road_20870_764" to="road_764_18756" fromLane="3" toLane="2"/>
    <connection from="road_20870_764" to="road_764_18756" fromLane="3" toLane="3"/>
    <connection from="road_20870_764" to="road_764_18756" fromLane="3" toLane="4"/>
    <connection from="road_20870_764" to="road_764_15059" fromLane="4" toLane="0"/>
    <connection from="road_20870_764" to="road_764_15059" fromLane="4" toLane="1"/>
    <connection from="road_20870_764" to="road_764_15059" fromLane="4" toLane="2"/>
    <connection from="road_1172_764" to="road_764_18756" fromLane="0" toLane="0"/>
    <connection from="road_1172_764" to="road_764_18756" fromLane="0" toLane="1"/>
    <connection from="road_1172_764" to="road_764_18756" fromLane="0" toLane="2"/>
    <connection from="road_1172_764" to="road_764_18756" fromLane="0" toLane="3"/>
    <connection from="road_1172_764" to="road_764_18756" fromLane="0" toLane="4"/>
    <connection from="road_1172_764" to="road_764_15059" fromLane="1" toLane="0"/>
    <connection from="road_1172_764" to="road_764_15059" fromLane="1" toLane="1"/>
    <connection from="road_1172_764" to="road_764_15059" fromLane="1" toLane="2"/>
    <connection from="road_1172_764" to="road_764_20870" fromLane="2" toLane="0"/>
    <connection from="road_1172_764" to="road_764_20870" fromLane="2" toLane="1"/>
    <connection from="road_1172_764" to="road_764_20870" fromLane="2" toLane="2"/>
    <connection from="road_1172_764" to="road_764_20870" fromLane="2" toLane="3"/>
    <connection from="road_1172_764" to="road_764_20870" fromLane="2" toLane="4"/>
    <connection from="road_18756_764" to="road_764_15059" fromLane="0" toLane="0"/>
    <connection from="road_18756_764" to="road_764_15059" fromLane="0" toLane="1"/>
    <connection from="road_18756_764" to="road_764_15059" fromLane="0" toLane="2"/>
    <connection from="road_18756_764" to="road_764_20870" fromLane="1" toLane="0"/>
    <connection from="road_18756_764" to="road_764_20870" fromLane="1" toLane="1"/>
    <connection from="road_18756_764" to="road_764_20870" fromLane="1" toLane="2"/>
    <connection from="road_18756_764" to="road_764_20870" fromLane="1" toLane="3"/>
    <connection from="road_18756_764" to="road_764_20870" fromLane="1" toLane="4"/>
    <connection from="road_18756_764" to="road_764_20870" fromLane="2" toLane="0"/>
    <connection from="road_18756_764" to="road_764_20870" fromLane="2" toLane="1"/>
    <connection from="road_18756_764" to="road_764_20870" fromLane="2" toLane="2"/>
    <connection from="road_18756_764" to="road_764_20870" fromLane="2" toLane="3"/>
    <connection from="road_18756_764" to="road_764_20870" fromLane="2" toLane="4"/>
    <connection from="road_18756_764" to="road_764_20870" fromLane="3" toLane="0"/>
    <connection from="road_18756_764" to="road_764_20870" fromLane="3" toLane="1"/>
    <connection from="road_18756_764" to="road_764_20870" fromLane="3" toLane="2"/>
    <connection from="road_18756_764" to="road_764_20870" fromLane="3" toLane="3"/>
    <connection from="road_18756_764" to="road_764_20870" fromLane="3" toLane="4"/>
    <connection from="road_18756_764" to="road_764_1172" fromLane="4" toLane="0"/>
    <connection from="road_18756_764" to="road_764_1172" fromLane="4" toLane="1"/>
    <connection from="road_18756_764" to="road_764_1172" fromLane="4" toLane="2"/>
    <connection from="road_766_767" to="road_767_15058" fromLane="0" toLane="0"/>
    <connection from="road_766_767" to="road_767_15058" fromLane="0" toLane="1"/>
    <connection from="road_766_767" to="road_767_15058" fromLane="0" toLane="2"/>
    <connection from="road_766_767" to="road_767_20870" fromLane="1" toLane="0"/>
    <connection from="road_766_767" to="road_767_20870" fromLane="1" toLane="1"/>