<?xml version="1.0" ?>
<nodes>
    <node id="inter_18755" x="688.36" y="285.09" type="traffic_light"/>
    <node id="inter_18757" x="-1162.68" y="1033.69" type="traffic_light"/>
    <node id="inter_20872" x="1209.93" y="1148.85" type="traffic_light"/>
    <node id="inter_4424" x="973.26" y="1696.48" type="traffic_light"/>
    <node id="inter_20874" x="764.65" y="1863.9" type="traffic_light"/>
    <node id="inter_1162" x="-872.06" y="1873.31" type="traffic_light"/>
    <node id="inter_1164" x="888.33" y="939.43" type="traffic_light"/>
    <node id="inter_766" x="-391.14" y="2439.49" type="traffic_light"/>
    <node id="inter_15058" x="60.8" y="2545.72" type="traffic_light"/>
    <node id="inter_627" x="226.42" y="0.54" type="traffic_light"/>
    <node id="inter_4446" x="260.26" y="561.7" type="traffic_light"/>
    <node id="inter_18756" x="364.8575" y="485.8" type="traffic_light"/>
    <node id="inter_20870" x="669.4124999999999" y="1592.7024999999999" type="traffic_light"/>
    <node id="inter_20871" x="840.065" y="1454.9025" type="traffic_light"/>
    <node id="inter_15059" x="-602.145" y="1735.13" type="traffic_light"/>
    <node id="inter_1172" x="678.0550000000001" y="1080.5175" type="traffic_light"/>
    <node id="inter_1171" x="451.475" y="429.68" type="traffic_light"/>
    <node id="inter_764" x="546.5625" y="1165.8474999999999" type="traffic_light"/>
    <node id="inter_767" x="-173.12" y="2260.9075000000003" type="traffic_light"/>
    <node id="inter_0" x="419.29" y="330.23" type="traffic_light"/>
</nodes>
