<?xml version="1.0" encoding="UTF-8"?>

<!-- generated on 2024-02-05 22:15:05 by Eclipse SUMO netconvert Version 1.18.0
<configuration xmlns:xsi="http://www.w3.org/2001/XMLSchema-instance" xsi:noNamespaceSchemaLocation="http://sumo.dlr.de/xsd/netconvertConfiguration.xsd">

    <input>
        <node-files value="./SH2.nod.xml"/>
        <edge-files value="./SH2.edg.xml"/>
    </input>

    <output>
        <output-file value="./SH2.net.xml"/>
    </output>

</configuration>
-->

<net version="1.16" junctionCornerDetail="5" limitTurnSpeed="5.50" xmlns:xsi="http://www.w3.org/2001/XMLSchema-instance" xsi:noNamespaceSchemaLocation="http://sumo.dlr.de/xsd/net_file.xsd">

    <location netOffset="1162.68,4.12" convBoundary="0.00,0.00,2379.46,2555.90" origBoundary="-1162.68,-4.12,1216.78,2551.78" projParameter="!"/>

    <edge id=":inter_0_0" function="internal">
        <lane id=":inter_0_0_0" index="0" speed="6.83" length="21.57" width="4.00" shape="1580.02,334.77 1582.45,328.58 1585.67,325.99 1589.67,327.01 1594.45,331.65"/>
    </edge>
    <edge id=":inter_1162_0" function="internal">
        <lane id=":inter_1162_0_0" index="0" speed="6.59" length="19.86" width="4.00" shape="291.48,1879.23 285.42,1878.37 282.42,1876.03 282.48,1872.23 285.62,1866.96"/>
    </edge>
    <edge id=":inter_1164_0" function="internal">
        <lane id=":inter_1164_0_0" index="0" speed="6.84" length="21.60" width="4.00" shape="2049.96,941.85 2056.62,942.07 2060.14,944.24 2060.52,948.36 2057.75,954.42"/>
    </edge>
    <edge id=":inter_1171_0" function="internal">
        <lane id=":inter_1171_0_0" index="0" speed="7.02" length="11.78" shape="1612.40,462.68 1611.07,460.51 1608.95,459.55 1606.03,459.78 1602.31,461.22"/>
    </edge>
    <edge id=":inter_1171_1" function="internal">
        <lane id=":inter_1171_1_0" index="0" speed="13.89" length="56.76" shape="1612.40,462.68 1607.25,450.58 1600.33,436.72 1593.72,422.78 1589.46,410.43"/>
        <lane id=":inter_1171_1_1" index="1" speed="13.89" length="56.76" shape="1615.43,461.66 1610.29,449.61 1603.41,435.87 1596.83,422.05 1592.59,409.75"/>
        <lane id=":inter_1171_1_2" index="2" speed="16.67" length="56.76" width="4.00" shape="1618.84,460.51 1613.72,448.52 1606.88,434.92 1600.33,421.23 1596.11,408.99"/>
    </edge>
    <edge id=":inter_1171_4" function="internal">
        <lane id=":inter_1171_4_0" index="0" speed="16.17" length="33.44" width="4.00" shape="1618.84,460.51 1614.87,444.18 1614.94,430.88 1616.18,427.79"/>
    </edge>
    <edge id=":inter_1171_5" function="internal">
        <lane id=":inter_1171_5_0" index="0" speed="6.84" length="17.25" width="4.00" shape="1618.84,460.51 1620.58,454.07 1623.50,451.14 1627.59,451.71 1629.42,453.13"/>
    </edge>
    <edge id=":inter_1171_24" function="internal">
        <lane id=":inter_1171_24_0" index="0" speed="16.17" length="18.66" width="4.00" shape="1616.18,427.79 1619.05,420.60 1627.21,413.34"/>
    </edge>
    <edge id=":inter_1171_25" function="internal">
        <lane id=":inter_1171_25_0" index="0" speed="6.84" length="4.36" width="4.00" shape="1629.42,453.13 1632.87,455.80"/>
    </edge>
    <edge id=":inter_1171_6" function="internal">
        <lane id=":inter_1171_6_0" index="0" speed="10.72" length="22.50" shape="1637.83,432.14 1636.11,434.51 1635.79,438.88 1636.86,445.25 1639.31,453.63"/>
    </edge>
    <edge id=":inter_1171_7" function="internal">
        <lane id=":inter_1171_7_0" index="0" speed="13.89" length="45.85" shape="1637.83,432.14 1628.66,438.86 1620.21,446.95 1611.70,454.91 1602.31,461.22"/>
        <lane id=":inter_1171_7_1" index="1" speed="13.89" length="45.85" shape="1636.25,429.36 1627.11,436.06 1618.72,444.13 1610.25,452.05 1600.89,458.35"/>
        <lane id=":inter_1171_7_2" index="2" speed="16.67" length="45.85" width="4.00" shape="1634.48,426.22 1625.37,432.92 1617.04,440.94 1608.63,448.84 1599.30,455.12"/>
    </edge>
    <edge id=":inter_1171_10" function="internal">
        <lane id=":inter_1171_10_0" index="0" speed="13.54" length="24.09" width="4.00" shape="1634.48,426.22 1620.60,431.59 1611.44,430.67"/>
    </edge>
    <edge id=":inter_1171_11" function="internal">
        <lane id=":inter_1171_11_0" index="0" speed="6.84" length="17.09" width="4.00" shape="1634.48,426.22 1627.83,425.73 1624.40,423.42 1624.19,419.29 1625.17,417.37"/>
    </edge>
    <edge id=":inter_1171_26" function="internal">
        <lane id=":inter_1171_26_0" index="0" speed="13.54" length="27.96" width="4.00" shape="1611.44,430.67 1609.52,430.48 1601.33,422.94 1596.11,408.99"/>
    </edge>
    <edge id=":inter_1171_27" function="internal">
        <lane id=":inter_1171_27_0" index="0" speed="6.84" length="4.52" width="4.00" shape="1625.17,417.37 1627.21,413.34"/>
    </edge>
    <edge id=":inter_1171_12" function="internal">
        <lane id=":inter_1171_12_0" index="0" speed="5.95" length="9.09" shape="1617.18,404.42 1618.09,406.87 1619.51,408.19 1621.43,408.37 1623.86,407.42"/>
    </edge>
    <edge id=":inter_1171_13" function="internal">
        <lane id=":inter_1171_13_0" index="0" speed="13.89" length="54.40" shape="1617.18,404.42 1621.31,416.30 1627.65,429.19 1634.29,442.00 1639.31,453.63"/>
        <lane id=":inter_1171_13_1" index="1" speed="13.89" length="54.40" shape="1614.05,405.10 1618.20,417.03 1624.57,430.04 1631.24,442.97 1636.28,454.65"/>
        <lane id=":inter_1171_13_2" index="2" speed="16.67" length="54.40" width="4.00" shape="1610.54,405.86 1614.69,417.85 1621.10,430.99 1627.81,444.06 1632.87,455.80"/>
    </edge>
    <edge id=":inter_1171_16" function="internal">
        <lane id=":inter_1171_16_0" index="0" speed="16.67" length="32.62" width="4.00" shape="1610.54,405.86 1613.04,423.74 1612.00,437.91 1611.86,438.24"/>
    </edge>
    <edge id=":inter_1171_17" function="internal">
        <lane id=":inter_1171_17_0" index="0" speed="6.83" length="17.06" width="4.00" shape="1610.54,405.86 1608.10,412.06 1604.89,414.64 1600.89,413.62 1599.34,412.12"/>
    </edge>
    <edge id=":inter_1171_28" function="internal">
        <lane id=":inter_1171_28_0" index="0" speed="16.67" length="21.62" width="4.00" shape="1611.86,438.24 1607.42,448.37 1599.30,455.12"/>
    </edge>
    <edge id=":inter_1171_29" function="internal">
        <lane id=":inter_1171_29_0" index="0" speed="6.83" length="4.50" width="4.00" shape="1599.34,412.12 1596.11,408.99"/>
    </edge>
    <edge id=":inter_1171_18" function="internal">
        <lane id=":inter_1171_18_0" index="0" speed="11.82" length="26.17" shape="1589.76,435.82 1591.50,433.36 1592.04,428.31 1591.36,420.67 1589.46,410.43"/>
    </edge>
    <edge id=":inter_1171_19" function="internal">
        <lane id=":inter_1171_19_0" index="0" speed="13.89" length="44.70" shape="1589.76,435.82 1598.92,429.61 1606.95,421.89 1614.91,414.03 1623.86,407.42"/>
        <lane id=":inter_1171_19_1" index="1" speed="13.89" length="44.70" shape="1591.17,438.68 1600.36,432.47 1608.45,424.72 1616.46,416.83 1625.44,410.20"/>
        <lane id=":inter_1171_19_2" index="2" speed="16.67" length="44.70" width="4.00" shape="1592.77,441.91 1601.99,435.68 1610.13,427.90 1618.21,419.98 1627.21,413.34"/>
    </edge>
    <edge id=":inter_1171_22" function="internal">
        <lane id=":inter_1171_22_0" index="0" speed="14.16" length="25.62" width="4.00" shape="1592.77,441.91 1606.90,436.53 1617.40,436.56"/>
    </edge>
    <edge id=":inter_1171_23" function="internal">
        <lane id=":inter_1171_23_0" index="0" speed="6.83" length="16.95" width="4.00" shape="1592.77,441.91 1599.35,442.77 1602.64,445.25 1602.62,449.37 1601.58,451.16"/>
    </edge>
    <edge id=":inter_1171_30" function="internal">
        <lane id=":inter_1171_30_0" index="0" speed="14.16" length="25.59" width="4.00" shape="1617.40,436.56 1617.93,436.56 1626.41,442.73 1632.87,455.80"/>
    </edge>
    <edge id=":inter_1171_31" function="internal">
        <lane id=":inter_1171_31_0" index="0" speed="6.83" length="4.57" width="4.00" shape="1601.58,451.16 1599.30,455.12"/>
    </edge>
    <edge id=":inter_1172_0" function="internal">
        <lane id=":inter_1172_0_0" index="0" speed="6.82" length="11.06" shape="1840.48,1113.09 1839.06,1110.99 1837.02,1110.09 1834.36,1110.38 1831.07,1111.87"/>
    </edge>
    <edge id=":inter_1172_1" function="internal">
        <lane id=":inter_1172_1_0" index="0" speed="13.89" length="54.30" shape="1840.48,1113.09 1834.74,1101.73 1827.31,1089.20 1820.05,1076.60 1814.83,1065.04"/>
        <lane id=":inter_1172_1_1" index="1" speed="13.89" length="54.30" shape="1843.44,1111.88 1837.71,1100.55 1830.31,1088.08 1823.07,1075.55 1817.86,1064.02"/>
        <lane id=":inter_1172_1_2" index="2" speed="16.67" length="54.30" width="4.00" shape="1846.77,1110.51 1841.06,1099.21 1833.68,1086.82 1826.47,1074.37 1821.28,1062.88"/>
    </edge>
    <edge id=":inter_1172_4" function="internal">
        <lane id=":inter_1172_4_0" index="0" speed="15.34" length="26.53" width="4.00" shape="1846.77,1110.51 1845.50,1100.27 1846.42,1085.49 1846.68,1084.11"/>
    </edge>
    <edge id=":inter_1172_5" function="internal">
        <lane id=":inter_1172_5_0" index="0" speed="6.84" length="17.25" width="4.00" shape="1846.77,1110.51 1848.09,1103.97 1850.80,1100.85 1854.93,1101.16 1856.85,1102.45"/>
    </edge>
    <edge id=":inter_1172_24" function="internal">
        <lane id=":inter_1172_24_0" index="0" speed="15.34" length="21.26" width="4.00" shape="1846.68,1084.11 1849.04,1071.60 1852.88,1063.99"/>
    </edge>
    <edge id=":inter_1172_25" function="internal">
        <lane id=":inter_1172_25_0" index="0" speed="6.84" length="4.35" width="4.00" shape="1856.85,1102.45 1860.46,1104.89"/>
    </edge>
    <edge id=":inter_1172_6" function="internal">
        <lane id=":inter_1172_6_0" index="0" speed="10.28" length="21.08" shape="1864.26,1082.35 1862.71,1084.65 1862.60,1088.75 1863.95,1094.63 1866.75,1102.30"/>
    </edge>
    <edge id=":inter_1172_7" function="internal">
        <lane id=":inter_1172_7_0" index="0" speed="13.89" length="44.44" shape="1864.26,1082.35 1855.52,1089.23 1847.75,1097.25 1839.94,1105.19 1831.07,1111.87"/>
        <lane id=":inter_1172_7_1" index="1" speed="13.89" length="44.44" shape="1862.57,1079.63 1853.84,1086.51 1846.10,1094.51 1838.32,1102.43 1829.46,1109.10"/>
        <lane id=":inter_1172_7_2" index="2" speed="16.67" length="44.44" width="4.00" shape="1860.68,1076.57 1851.96,1083.44 1844.25,1091.42 1836.50,1099.33 1827.66,1105.99"/>
    </edge>
    <edge id=":inter_1172_10" function="internal">
        <lane id=":inter_1172_10_0" index="0" speed="13.71" length="24.97" width="4.00" shape="1860.68,1076.57 1847.25,1082.67 1837.02,1082.54"/>
    </edge>
    <edge id=":inter_1172_11" function="internal">
        <lane id=":inter_1172_11_0" index="0" speed="6.84" length="17.12" width="4.00" shape="1860.68,1076.57 1854.01,1076.34 1850.49,1074.18 1850.12,1070.06 1851.02,1068.07"/>
    </edge>
    <edge id=":inter_1172_26" function="internal">
        <lane id=":inter_1172_26_0" index="0" speed="13.71" length="26.10" width="4.00" shape="1837.02,1082.54 1836.36,1082.54 1827.78,1076.00 1821.28,1062.88"/>
    </edge>
    <edge id=":inter_1172_27" function="internal">
        <lane id=":inter_1172_27_0" index="0" speed="6.84" length="4.48" width="4.00" shape="1851.02,1068.07 1852.88,1063.99"/>
    </edge>
    <edge id=":inter_1172_12" function="internal">
        <lane id=":inter_1172_12_0" index="0" speed="6.20" length="9.53" shape="1841.75,1056.00 1842.94,1058.28 1844.60,1059.40 1846.72,1059.38 1849.30,1058.21"/>
    </edge>
    <edge id=":inter_1172_13" function="internal">
        <lane id=":inter_1172_13_0" index="0" speed="13.89" length="52.89" shape="1841.75,1056.00 1846.87,1067.28 1853.90,1079.28 1861.11,1091.21 1866.75,1102.30"/>
        <lane id=":inter_1172_13_1" index="1" speed="13.89" length="52.89" shape="1838.72,1057.02 1843.85,1068.33 1850.91,1080.40 1858.14,1092.40 1863.79,1103.52"/>
        <lane id=":inter_1172_13_2" index="2" speed="16.67" length="52.89" width="4.00" shape="1835.30,1058.16 1840.45,1069.51 1847.53,1081.65 1854.79,1093.73 1860.46,1104.89"/>
    </edge>
    <edge id=":inter_1172_16" function="internal">
        <lane id=":inter_1172_16_0" index="0" speed="15.80" length="26.25" width="4.00" shape="1835.30,1058.16 1836.07,1068.75 1834.59,1084.05 1834.54,1084.31"/>
    </edge>
    <edge id=":inter_1172_17" function="internal">
        <lane id=":inter_1172_17_0" index="0" speed="6.84" length="17.18" width="4.00" shape="1835.30,1058.16 1833.57,1064.60 1830.65,1067.54 1826.55,1066.96 1824.78,1065.59"/>
    </edge>
    <edge id=":inter_1172_28" function="internal">
        <lane id=":inter_1172_28_0" index="0" speed="15.80" length="22.93" width="4.00" shape="1834.54,1084.31 1831.56,1098.36 1827.66,1105.99"/>
    </edge>
    <edge id=":inter_1172_29" function="internal">
        <lane id=":inter_1172_29_0" index="0" speed="6.84" length="4.43" width="4.00" shape="1824.78,1065.59 1821.28,1062.88"/>
    </edge>
    <edge id=":inter_1172_18" function="internal">
        <lane id=":inter_1172_18_0" index="0" speed="10.95" length="23.25" shape="1816.83,1087.32 1818.43,1084.93 1818.63,1080.42 1817.43,1073.79 1814.83,1065.04"/>
    </edge>
    <edge id=":inter_1172_19" function="internal">
        <lane id=":inter_1172_19_0" index="0" speed="13.89" length="43.82" shape="1816.83,1087.32 1825.59,1080.71 1833.15,1072.91 1840.67,1065.04 1849.30,1058.21"/>
        <lane id=":inter_1172_19_1" index="1" speed="13.89" length="43.82" shape="1818.44,1090.09 1827.21,1083.47 1834.80,1075.65 1842.35,1067.76 1850.99,1060.93"/>
        <lane id=":inter_1172_19_2" index="2" speed="16.67" length="43.82" width="4.00" shape="1820.24,1093.21 1829.03,1086.58 1836.65,1078.74 1844.23,1070.83 1852.88,1063.99"/>
    </edge>
    <edge id=":inter_1172_22" function="internal">
        <lane id=":inter_1172_22_0" index="0" speed="14.07" length="25.67" width="4.00" shape="1820.24,1093.21 1833.77,1087.08 1844.58,1086.60"/>
    </edge>
    <edge id=":inter_1172_23" function="internal">
        <lane id=":inter_1172_23_0" index="0" speed="6.83" length="17.07" width="4.00" shape="1820.24,1093.21 1826.89,1093.62 1830.34,1095.89 1830.60,1100.01 1829.65,1101.94"/>
    </edge>
    <edge id=":inter_1172_30" function="internal">
        <lane id=":inter_1172_30_0" index="0" speed="14.07" length="24.87" width="4.00" shape="1844.58,1086.60 1853.27,1092.34 1860.46,1104.89"/>
    </edge>
    <edge id=":inter_1172_31" function="internal">
        <lane id=":inter_1172_31_0" index="0" speed="6.83" length="4.51" width="4.00" shape="1829.65,1101.94 1827.66,1105.99"/>
    </edge>
    <edge id=":inter_15058_0" function="internal">
        <lane id=":inter_15058_0_0" index="0" speed="6.59" length="19.85" width="4.00" shape="1225.05,2548.61 1225.53,2554.71 1223.90,2558.15 1220.18,2558.91 1214.36,2557.00"/>
    </edge>
    <edge id=":inter_15059_0" function="internal">
        <lane id=":inter_15059_0_0" index="0" speed="10.73" length="21.74" shape="565.19,1761.63 562.67,1760.34 558.42,1760.59 552.44,1762.39 544.72,1765.72"/>
    </edge>
    <edge id=":inter_15059_1" function="internal">
        <lane id=":inter_15059_1_0" index="0" speed="13.89" length="41.58" shape="565.19,1761.63 557.74,1753.97 549.81,1747.67 541.89,1741.35 534.51,1733.64"/>
        <lane id=":inter_15059_1_1" index="1" speed="13.89" length="41.58" shape="567.68,1759.63 560.24,1751.98 552.32,1745.68 544.41,1739.37 537.03,1731.67"/>
        <lane id=":inter_15059_1_2" index="2" speed="16.67" length="41.58" width="4.00" shape="570.50,1757.38 563.06,1749.73 555.14,1743.45 547.24,1737.14 539.86,1729.45"/>
    </edge>
    <edge id=":inter_15059_4" function="internal">
        <lane id=":inter_15059_4_0" index="0" speed="13.37" length="23.45" width="4.00" shape="570.50,1757.38 563.29,1745.50 562.33,1735.99"/>
    </edge>
    <edge id=":inter_15059_5" function="internal">
        <lane id=":inter_15059_5_0" index="0" speed="6.59" length="15.45" width="4.00" shape="570.50,1757.38 569.96,1751.27 571.56,1747.82 575.28,1747.02 576.91,1747.54"/>
    </edge>
    <edge id=":inter_15059_24" function="internal">
        <lane id=":inter_15059_24_0" index="0" speed="13.37" length="24.75" width="4.00" shape="562.33,1735.99 562.27,1735.32 567.49,1726.55 579.06,1718.90"/>
    </edge>
    <edge id=":inter_15059_25" function="internal">
        <lane id=":inter_15059_25_0" index="0" speed="6.59" length="4.41" width="4.00" shape="576.91,1747.54 581.12,1748.88"/>
    </edge>
    <edge id=":inter_15059_6" function="internal">
        <lane id=":inter_15059_6_0" index="0" speed="6.11" length="9.16" shape="588.00,1737.23 585.88,1738.68 584.91,1740.39 585.09,1742.38 586.43,1744.63"/>
    </edge>
    <edge id=":inter_15059_7" function="internal">
        <lane id=":inter_15059_7_0" index="0" speed="13.89" length="51.84" shape="588.00,1737.23 577.45,1743.54 566.38,1751.51 555.29,1759.46 544.72,1765.72"/>
        <lane id=":inter_15059_7_1" index="1" speed="13.89" length="51.84" shape="586.60,1734.35 576.05,1740.66 564.99,1748.63 553.91,1756.58 543.34,1762.83"/>
        <lane id=":inter_15059_7_2" index="2" speed="16.67" length="51.84" width="4.00" shape="585.02,1731.12 574.48,1737.43 563.42,1745.39 552.35,1753.33 541.79,1759.59"/>
    </edge>
    <edge id=":inter_15059_10" function="internal">
        <lane id=":inter_15059_10_0" index="0" speed="15.84" length="30.29" width="4.00" shape="585.02,1731.12 570.30,1736.81 557.87,1738.43 555.95,1737.97"/>
    </edge>
    <edge id=":inter_15059_11" function="internal">
        <lane id=":inter_15059_11_0" index="0" speed="6.59" length="15.48" width="4.00" shape="585.02,1731.12 578.95,1730.29 575.93,1727.98 575.97,1724.19 576.85,1722.67"/>
    </edge>
    <edge id=":inter_15059_26" function="internal">
        <lane id=":inter_15059_26_0" index="0" speed="15.84" length="18.68" width="4.00" shape="555.95,1737.97 547.72,1735.98 539.86,1729.45"/>
    </edge>
    <edge id=":inter_15059_27" function="internal">
        <lane id=":inter_15059_27_0" index="0" speed="6.59" length="4.37" width="4.00" shape="576.85,1722.67 579.06,1718.90"/>
    </edge>
    <edge id=":inter_15059_12" function="internal">
        <lane id=":inter_15059_12_0" index="0" speed="10.58" length="21.46" shape="555.92,1716.86 558.40,1718.17 562.59,1717.92 568.48,1716.13 576.08,1712.78"/>
    </edge>
    <edge id=":inter_15059_13" function="internal">
        <lane id=":inter_15059_13_0" index="0" speed="13.89" length="41.38" shape="555.92,1716.86 563.27,1724.53 571.13,1730.78 579.01,1737.01 586.43,1744.63"/>
        <lane id=":inter_15059_13_1" index="1" speed="13.89" length="41.38" shape="553.40,1718.83 560.76,1726.51 568.62,1732.77 576.51,1739.01 583.93,1746.63"/>
        <lane id=":inter_15059_13_2" index="2" speed="16.67" length="41.38" width="4.00" shape="550.57,1721.05 557.93,1728.74 565.80,1735.00 573.69,1741.25 581.12,1748.88"/>
    </edge>
    <edge id=":inter_15059_16" function="internal">
        <lane id=":inter_15059_16_0" index="0" speed="13.39" length="23.43" width="4.00" shape="550.57,1721.05 557.69,1733.03 558.61,1742.48"/>
    </edge>
    <edge id=":inter_15059_17" function="internal">
        <lane id=":inter_15059_17_0" index="0" speed="6.59" length="15.44" width="4.00" shape="550.57,1721.05 551.04,1727.17 549.41,1730.60 545.69,1731.36 544.06,1730.83"/>
    </edge>
    <edge id=":inter_15059_28" function="internal">
        <lane id=":inter_15059_28_0" index="0" speed="13.39" length="24.87" width="4.00" shape="558.61,1742.48 558.68,1743.25 553.42,1752.00 541.79,1759.59"/>
    </edge>
    <edge id=":inter_15059_29" function="internal">
        <lane id=":inter_15059_29_0" index="0" speed="6.59" length="4.42" width="4.00" shape="544.06,1730.83 539.86,1729.45"/>
    </edge>
    <edge id=":inter_15059_18" function="internal">
        <lane id=":inter_15059_18_0" index="0" speed="6.15" length="9.29" shape="532.99,1741.18 535.11,1739.74 536.07,1738.00 535.87,1735.97 534.51,1733.64"/>
    </edge>
    <edge id=":inter_15059_19" function="internal">
        <lane id=":inter_15059_19_0" index="0" speed="13.89" length="51.68" shape="532.99,1741.18 543.53,1734.94 554.55,1727.02 565.56,1719.09 576.08,1712.78"/>
        <lane id=":inter_15059_19_1" index="1" speed="13.89" length="51.68" shape="534.37,1744.07 544.92,1737.82 555.94,1729.90 566.96,1721.96 577.48,1715.66"/>
        <lane id=":inter_15059_19_2" index="2" speed="16.67" length="51.68" width="4.00" shape="535.92,1747.32 546.47,1741.07 557.51,1733.15 568.53,1725.20 579.06,1718.90"/>
    </edge>
    <edge id=":inter_15059_22" function="internal">
        <lane id=":inter_15059_22_0" index="0" speed="15.95" length="30.27" width="4.00" shape="535.92,1747.32 550.67,1741.72 563.11,1740.11 565.00,1740.55"/>
    </edge>
    <edge id=":inter_15059_23" function="internal">
        <lane id=":inter_15059_23_0" index="0" speed="6.59" length="15.48" width="4.00" shape="535.92,1747.32 541.99,1748.18 544.99,1750.52 544.92,1754.32 544.03,1755.82"/>
    </edge>
    <edge id=":inter_15059_30" function="internal">
        <lane id=":inter_15059_30_0" index="0" speed="15.95" length="18.61" width="4.00" shape="565.00,1740.55 573.26,1742.50 581.12,1748.88"/>
    </edge>
    <edge id=":inter_15059_31" function="internal">
        <lane id=":inter_15059_31_0" index="0" speed="6.59" length="4.38" width="4.00" shape="544.03,1755.82 541.79,1759.59"/>
    </edge>
    <edge id=":inter_18755_0" function="internal">
        <lane id=":inter_18755_0_0" index="0" speed="6.84" length="21.62" width="4.00" shape="1850.06,287.47 1856.71,287.96 1860.14,290.27 1860.35,294.41 1857.34,300.36"/>
    </edge>
    <edge id=":inter_18756_0" function="internal">
        <lane id=":inter_18756_0_0" index="0" speed="6.93" length="12.86" shape="1518.88,524.08 1517.65,521.81 1515.45,521.00 1512.26,521.66 1508.10,523.79"/>
    </edge>
    <edge id=":inter_18756_1" function="internal">
        <lane id=":inter_18756_1_0" index="0" speed="13.89" length="63.94" shape="1518.88,524.08 1512.75,508.38 1504.59,495.70 1496.41,483.02 1490.18,467.34"/>
        <lane id=":inter_18756_1_1" index="1" speed="13.89" length="63.94" shape="1521.99,523.32 1515.85,507.62 1507.70,494.92 1499.51,482.24 1493.28,466.56"/>
        <lane id=":inter_18756_1_2" index="2" speed="13.89" length="63.94" shape="1525.09,522.56 1518.96,506.85 1510.80,494.15 1502.62,481.46 1496.39,465.78"/>
        <lane id=":inter_18756_1_3" index="3" speed="13.89" length="63.94" shape="1528.20,521.80 1522.07,506.09 1513.91,493.38 1505.72,480.68 1499.49,464.99"/>
        <lane id=":inter_18756_1_4" index="4" speed="16.67" length="63.94" width="4.00" shape="1531.70,520.94 1525.56,505.23 1517.40,492.51 1509.21,479.80 1502.98,464.11"/>
    </edge>
    <edge id=":inter_18756_6" function="internal">
        <lane id=":inter_18756_6_0" index="0" speed="16.67" length="37.75" width="4.00" shape="1531.70,520.94 1529.03,500.89 1531.71,484.30 1532.08,483.69"/>
    </edge>
    <edge id=":inter_18756_7" function="internal">
        <lane id=":inter_18756_7_0" index="0" speed="8.04" length="26.39" width="4.00" shape="1531.70,520.94 1534.96,511.96 1539.47,508.13 1545.25,509.44 1548.92,512.82"/>
    </edge>
    <edge id=":inter_18756_32" function="internal">
        <lane id=":inter_18756_32_0" index="0" speed="16.67" length="31.12" width="4.00" shape="1532.08,483.69 1539.71,471.18 1553.06,461.53"/>
    </edge>
    <edge id=":inter_18756_33" function="internal">
        <lane id=":inter_18756_33_0" index="0" speed="8.04" length="4.56" width="4.00" shape="1548.92,512.82 1552.29,515.90"/>
    </edge>
    <edge id=":inter_18756_8" function="internal">
        <lane id=":inter_18756_8_0" index="0" speed="13.03" length="32.76" shape="1562.60,480.84 1560.98,483.71 1560.86,489.99 1562.23,499.68 1565.11,512.77"/>
        <lane id=":inter_18756_8_1" index="1" speed="13.29" length="34.13" shape="1562.60,480.84 1559.69,484.31 1558.61,490.91 1559.38,500.65 1562.00,513.53"/>
    </edge>
    <edge id=":inter_18756_10" function="internal">
        <lane id=":inter_18756_10_0" index="0" speed="13.89" length="69.76" shape="1562.60,480.84 1550.21,489.25 1535.10,501.86 1520.11,514.70 1508.10,523.79"/>
        <lane id=":inter_18756_10_1" index="1" speed="13.89" length="69.76" shape="1561.18,477.97 1548.75,486.40 1533.55,499.06 1518.48,511.95 1506.42,521.06"/>
        <lane id=":inter_18756_10_2" index="2" speed="16.67" length="69.76" width="4.00" shape="1559.59,474.74 1547.11,483.20 1531.81,495.92 1516.64,508.86 1504.54,518.00"/>
    </edge>
    <edge id=":inter_18756_13" function="internal">
        <lane id=":inter_18756_13_0" index="0" speed="15.28" length="35.50" shape="1559.59,474.74 1538.44,483.65 1526.04,485.64"/>
        <lane id=":inter_18756_13_1" index="1" speed="16.01" length="34.52" width="4.00" shape="1559.59,474.74 1539.66,483.09 1526.88,484.94"/>
    </edge>
    <edge id=":inter_18756_15" function="internal">
        <lane id=":inter_18756_15_0" index="0" speed="6.83" length="16.94" width="4.00" shape="1559.59,474.74 1553.00,473.89 1549.72,471.40 1549.74,467.28 1550.77,465.50"/>
    </edge>
    <edge id=":inter_18756_34" function="internal">
        <lane id=":inter_18756_34_0" index="0" speed="15.28" length="37.44" shape="1526.04,485.64 1520.93,486.45 1507.73,480.96 1499.49,464.99"/>
    </edge>
    <edge id=":inter_18756_35" function="internal">
        <lane id=":inter_18756_35_0" index="0" speed="16.01" length="34.88" width="4.00" shape="1526.88,484.94 1523.23,485.47 1510.84,479.84 1502.98,464.11"/>
    </edge>
    <edge id=":inter_18756_36" function="internal">
        <lane id=":inter_18756_36_0" index="0" speed="6.83" length="4.58" width="4.00" shape="1550.77,465.50 1553.06,461.53"/>
    </edge>
    <edge id=":inter_18756_16" function="internal">
        <lane id=":inter_18756_16_0" index="0" speed="7.78" length="15.51" shape="1536.32,455.70 1537.73,457.86 1540.49,458.53 1544.59,457.73 1550.05,455.44"/>
    </edge>
    <edge id=":inter_18756_17" function="internal">
        <lane id=":inter_18756_17_0" index="0" speed="13.89" length="64.18" shape="1536.32,455.70 1542.57,471.43 1550.78,484.22 1558.96,497.01 1565.11,512.77"/>
        <lane id=":inter_18756_17_1" index="1" speed="13.89" length="64.18" shape="1533.22,456.48 1539.46,472.21 1547.67,484.99 1555.85,497.78 1562.00,513.53"/>
        <lane id=":inter_18756_17_2" index="2" speed="13.89" length="64.18" shape="1530.12,457.26 1536.36,472.99 1544.57,485.76 1552.75,498.54 1558.89,514.29"/>
        <lane id=":inter_18756_17_3" index="3" speed="13.89" length="64.18" shape="1527.02,458.05 1533.26,473.76 1541.46,486.53 1549.64,499.31 1555.78,515.05"/>
        <lane id=":inter_18756_17_4" index="4" speed="16.67" length="64.18" width="4.00" shape="1523.53,458.93 1529.76,474.64 1537.97,487.40 1546.14,500.17 1552.29,515.90"/>
    </edge>
    <edge id=":inter_18756_22" function="internal">
        <lane id=":inter_18756_22_0" index="0" speed="16.67" length="37.52" width="4.00" shape="1523.53,458.93 1526.22,478.00 1523.95,494.21 1523.05,495.87"/>
    </edge>
    <edge id=":inter_18756_23" function="internal">
        <lane id=":inter_18756_23_0" index="0" speed="8.04" length="26.39" width="4.00" shape="1523.53,458.93 1520.33,467.93 1515.84,471.79 1510.06,470.52 1506.36,467.17"/>
    </edge>
    <edge id=":inter_18756_37" function="internal">
        <lane id=":inter_18756_37_0" index="0" speed="16.67" length="29.34" width="4.00" shape="1523.05,495.87 1516.73,507.54 1504.54,518.00"/>
    </edge>
    <edge id=":inter_18756_38" function="internal">
        <lane id=":inter_18756_38_0" index="0" speed="8.04" length="4.56" width="4.00" shape="1506.36,467.17 1502.98,464.11"/>
    </edge>
    <edge id=":inter_18756_24" function="internal">
        <lane id=":inter_18756_24_0" index="0" speed="13.61" length="33.06" shape="1493.23,499.61 1494.69,496.58 1494.67,490.19 1493.17,480.44 1490.18,467.34"/>
        <lane id=":inter_18756_24_1" index="1" speed="13.87" length="34.33" shape="1493.23,499.61 1495.96,495.87 1496.88,489.12 1495.99,479.35 1493.28,466.56"/>
    </edge>
    <edge id=":inter_18756_26" function="internal">
        <lane id=":inter_18756_26_0" index="0" speed="13.89" length="71.73" shape="1493.23,499.61 1505.61,490.33 1521.39,477.07 1537.29,464.04 1550.05,455.44"/>
        <lane id=":inter_18756_26_1" index="1" speed="13.89" length="71.73" shape="1494.91,502.34 1507.25,493.08 1522.94,479.87 1538.75,466.89 1551.47,458.31"/>
        <lane id=":inter_18756_26_2" index="2" speed="16.67" length="71.73" width="4.00" shape="1496.79,505.41 1509.09,496.17 1524.68,483.02 1540.39,470.09 1553.06,461.53"/>
    </edge>
    <edge id=":inter_18756_29" function="internal">
        <lane id=":inter_18756_29_0" index="0" speed="15.28" length="37.99" shape="1496.79,505.41 1516.83,495.04 1531.96,492.01"/>
        <lane id=":inter_18756_29_1" index="1" speed="15.59" length="36.11" width="4.00" shape="1496.79,505.41 1515.69,495.83 1530.40,493.30"/>
    </edge>
    <edge id=":inter_18756_31" function="internal">
        <lane id=":inter_18756_31_0" index="0" speed="6.84" length="17.17" width="4.00" shape="1496.79,505.41 1503.45,505.65 1506.96,507.83 1507.32,511.95 1506.38,513.99"/>
    </edge>
    <edge id=":inter_18756_39" function="internal">
        <lane id=":inter_18756_39_0" index="0" speed="15.28" length="36.08" shape="1531.96,492.01 1533.94,491.61 1547.21,497.49 1555.78,515.05"/>
    </edge>
    <edge id=":inter_18756_40" function="internal">
        <lane id=":inter_18756_40_0" index="0" speed="15.59" length="33.87" width="4.00" shape="1530.40,493.30 1531.77,493.07 1544.23,499.10 1552.29,515.90"/>
    </edge>
    <edge id=":inter_18756_41" function="internal">
        <lane id=":inter_18756_41_0" index="0" speed="6.84" length="4.41" width="4.00" shape="1506.38,513.99 1504.54,518.00"/>
    </edge>
    <edge id=":inter_18757_0" function="internal">