<?xml version="1.0" ?>
<routes>
    <vType width="2" length="5" sigma="0.5" color="1,0,0" minGap="2.5" tau="1.5" maxSpeed="16.67" accel="2" decel="4.5" emergencyDecel="4.5" id="vType0"/>
    <route edges="road_18757_15059 road_15059_764 road_764_20870 road_20870_20874" id="route0"/>
    <route edges="road_627_18756 road_18756_1171 road_1171_1172 road_1172_764 road_764_20870 road_20870_20874" id="route1"/>
    <route edges="road_15058_767 road_767_15059 road_15059_764 road_764_20870 road_20870_20874" id="route2"/>
    <route edges="road_627_18756 road_18756_764 road_764_20870 road_20870_20874" id="route3"/>
    <route edges="road_4446_18756 road_18756_764 road_764_20870 road_20870_20874" id="route4"/>
    <route edges="road_1164_1172 road_1172_764 road_764_20870 road_20870_20874" id="route5"/>
    <route edges="road_18755_1171 road_1171_1172 road_1172_764 road_764_20870 road_20870_20874" id="route6"/>
    <route edges="road_18755_1171 road_1171_18756 road_18756_764 road_764_20870 road_20870_20874" id="route7"/>
    <route edges="road_1164_1172 road_1172_1171 road_1171_18756 road_18756_764 road_764_20870 road_20870_20874" id="route8"/>
    <route edges="road_1164_1172 road_1172_764 road_764_20870 road_20870_767 road_767_15059 road_15059_18757" id="route9"/>
    <route edges="road_1162_15059 road_15059_764 road_764_20870 road_20870_20874" id="route10"/>
    <route edges="road_4424_20871 road_20871_1172 road_1172_764 road_764_20870 road_20870_20874" id="route11"/>
    <route edges="road_627_18756 road_18756_764 road_764_1172 road_1172_20871 road_20871_20870 road_20870_767 road_767_15058" id="route12"/>
    <route edges="road_766_767 road_767_20870 road_20870_20874" id="route13"/>
    <route edges="road_766_767 road_767_15059 road_15059_764 road_764_20870 road_20870_20874" id="route14"/>
    <route edges="road_627_18756 road_18756_764 road_764_15059 road_15059_18757" id="route15"/>
    <route edges="road_20872_20871 road_20871_1172 road_1172_764 road_764_20870 road_20870_20874" id="route16"/>
    <route edges="road_4446_18756 road_18756_1171 road_1171_1172 road_1172_764 road_764_20870 road_20870_20874" id="route17"/>
    <route edges="road_766_767 road_767_20870 road_20870_20871 road_20871_20872" id="route18"/>
    <route edges="road_20874_20870 road_20870_767 road_767_15059 road_15059_18757" id="route19"/>
    <route edges="road_15058_767 road_767_20870 road_20870_20874" id="route20"/>
    <route edges="road_1164_1172 road_1172_764 road_764_20870 road_20870_20871 road_20871_4424" id="route21"/>
    <route edges="road_766_767 road_767_15059 road_15059_18757" id="route22"/>
    <route edges="road_627_18756 road_18756_764 road_764_20870 road_20870_20871 road_20871_20872" id="route23"/>
    <route edges="road_20872_20871 road_20871_1172 road_1172_764 road_764_20870 road_20870_20871 road_20871_4424" id="route24"/>
    <route edges="road_1162_15059 road_15059_764 road_764_1172 road_1172_20871 road_20871_20870 road_20870_764 road_764_18756 road_18756_4446" id="route25"/>
    <route edges="road_15058_767 road_767_15059 road_15059_18757" id="route26"/>
    <route edges="road_1162_15059 road_15059_764 road_764_18756 road_18756_1171 road_1171_1172 road_1172_764 road_764_20870 road_20870_20874" id="route27"/>
    <route edges="road_4424_20871 road_20871_1172 road_1172_1171 road_1171_18756 road_18756_764 road_764_20870 road_20870_20874" id="route28"/>
    <route edges="road_1164_1172 road_1172_1171 road_1171_18756 road_18756_764 road_764_1172 road_1172_20871 road_20871_4424" id="route29"/>
    <route edges="road_1162_15059 road_15059_764 road_764_20870 road_20870_20871 road_20871_20872" id="route30"/>
    <route edges="road_18755_1171 road_1171_1172 road_1172_20871 road_20871_20870 road_20870_767 road_767_15059 road_15059_764 road_764_20870 road_20870_20874" id="route31"/>
    <route edges="road_1164_1172 road_1172_764 road_764_15059 road_15059_767 road_767_20870 road_20870_20874" id="route32"/>
    <route edges="road_4446_18756 road_18756_764 road_764_15059 road_15059_18757" id="route33"/>
    <route edges="road_15058_767 road_767_20870 road_20870_20871 road_20871_20872" id="route34"/>
    <route edges="road_20872_20871 road_20871_20870 road_20870_764 road_764_15059 road_15059_18757" id="route35"/>
    <route edges="road_18757_15059 road_15059_764 road_764_1172 road_1172_1171 road_1171_18756 road_18756_764 road_764_20870 road_20870_20874" id="route36"/>
    <route edges="road_18757_15059 road_15059_767 road_767_20870 road_20870_20871 road_20871_20872" id="route37"/>
    <route edges="road_766_767 road_767_20870 road_20870_20871 road_20871_4424" id="route38"/>
    <route edges="road_766_767 road_767_15059 road_15059_764 road_764_20870 road_20870_20871 road_20871_4424" id="route39"/>
    <route edges="road_4424_20871 road_20871_20870 road_20870_767 road_767_15059 road_15059_18757" id="route40"/>
    <route edges="road_4424_20871 road_20871_20870 road_20870_767 road_767_15059 road_15059_764 road_764_20870 road_20870_20874" id="route41"/>
    <route edges="road_766_767 road_767_15059 road_15059_764 road_764_18756 road_18756_1171 road_1171_1172 road_1172_764 road_764_20870 road_20870_20874" id="route42"/>
    <route edges="road_1164_1172 road_1172_20871 road_20871_20870 road_20870_20874" id="route43"/>
    <route edges="road_18757_15059 road_15059_767 road_767_20870 road_20870_20874" id="route44"/>
    <route edges="road_1164_1172 road_1172_20871 road_20871_20872" id="route45"/>
    <route edges="road_766_767 road_767_20870 road_20870_20871 road_20871_1172 road_1172_764 road_764_20870 road_20870_20874" id="route46"/>
    <route edges="road_18757_15059 road_15059_764 road_764_20870 road_20870_20871 road_20871_20872" id="route47"/>
    <route edges="road_4446_18756 road_18756_1171 road_1171_1172 road_1172_764 road_764_15059 road_15059_18757" id="route48"/>
    <route edges="road_766_767 road_767_15059 road_15059_764 road_764_1172 road_1172_20871 road_20871_20870 road_20870_20874" id="route49"/>
    <route edges="road_18757_15059 road_15059_764 road_764_20870 road_20870_20871 road_20871_1172 road_1172_1164" id="route50"/>
    <route edges="road_1162_15059 road_15059_767 road_767_20870 road_20870_20871 road_20871_20872" id="route51"/>
    <route edges="road_20874_20870 road_20870_764 road_764_1172 road_1172_20871 road_20871_20872" id="route52"/>
    <route edges="road_1162_15059 road_15059_767 road_767_20870 road_20870_20874" id="route53"/>
    <route edges="road_18755_1171 road_1171_1172 road_1172_764 road_764_20870 road_20870_20871 road_20871_20872" id="route54"/>
    <route edges="road_18755_1171 road_1171_1172 road_1172_20871 road_20871_4424" id="route55"/>
    <route edges="road_1164_1172 road_1172_764 road_764_20870 road_20870_20871 road_20871_20872" id="route56"/>
    <route edges="road_1164_1172 road_1172_20871 road_20871_20870 road_20870_767 road_767_15059 road_15059_764 road_764_20870 road_20870_20874" id="route57"/>
    <route edges="road_18757_15059 road_15059_764 road_764_20870 road_20870_20871 road_20871_1172 road_1172_1171 road_1171_18755" id="route58"/>
    <route edges="road_15058_767 road_767_15059 road_15059_764 road_764_18756 road_18756_1171 road_1171_1172 road_1172_764 road_764_20870 road_20870_20874" id="route59"/>
    <route edges="road_1164_1172 road_1172_1171 road_1171_18756 road_18756_764 road_764_15059 road_15059_18757" id="route60"/>
    <route edges="road_627_18756 road_18756_764 road_764_1172 road_1172_20871 road_20871_20870 road_20870_767 road_767_15059 road_15059_764 road_764_20870 road_20870_20874" id="route61"/>
    <route edges="road_18755_1171 road_1171_18756 road_18756_764 road_764_15059 road_15059_18757" id="route62"/>
    <route edges="road_20872_20871 road_20871_1172 road_1172_1171 road_1171_18756 road_18756_764 road_764_20870 road_20870_20874" id="route63"/>
    <route edges="road_18757_15059 road_15059_767 road_767_20870 road_20870_20871 road_20871_1172 road_1172_764 road_764_20870 road_20870_20874" id="route64"/>
    <route edges="road_627_18756 road_18756_1171 road_1171_1172 road_1172_764 road_764_20870 road_20870_20871 road_20871_4424" id="route65"/>
    <route edges="road_1164_1172 road_1172_20871 road_20871_4424" id="route66"/>
    <route edges="road_4446_18756 road_18756_1171 road_1171_1172 road_1172_764 road_764_20870 road_20870_20871 road_20871_20872" id="route67"/>
    <route edges="road_766_767 road_767_20870 road_20870_20871 road_20871_1172 road_1172_1171 road_1171_18756 road_18756_764 road_764_15059 road_15059_18757" id="route68"/>
    <route edges="road_18757_15059 road_15059_764 road_764_1172 road_1172_20871 road_20871_20870 road_20870_20874" id="route69"/>
    <route edges="road_15058_767 road_767_15059 road_15059_764 road_764_20870 road_20870_20871 road_20871_20872" id="route70"/>
    <route edges="road_627_18756 road_18756_764 road_764_1172 road_1172_20871 road_20871_20870 road_20870_20874" id="route71"/>
    <route edges="road_18757_15059 road_15059_764 road_764_1172 road_1172_20871 road_20871_4424" id="route72"/>
    <route edges="road_15058_767 road_767_15059 road_15059_764 road_764_1172 road_1172_20871 road_20871_20872" id="route73"/>
    <route edges="road_627_18756 road_18756_764 road_764_20870 road_20870_767 road_767_15059 road_15059_18757" id="route74"/>
    <route edges="road_766_767 road_767_15059 road_15059_764 road_764_1172 road_1172_1171 road_1171_18756 road_18756_764 road_764_20870 road_20870_20874" id="route75"/>
    <route edges="road_20874_20870 road_20870_764 road_764_15059 road_15059_18757" id="route76"/>
    <route edges="road_1164_1172 road_1172_1171 road_1171_18756 road_18756_764 road_764_15059 road_15059_767 road_767_20870 road_20870_20874" id="route77"/>
    <route edges="road_4446_18756 road_18756_764 road_764_1172 road_1172_20871 road_20871_20870 road_20870_767 road_767_15059 road_15059_18757" id="route78"/>
    <route edges="road_4424_20871 road_20871_20870 road_20870_764 road_764_15059 road_15059_18757" id="route79"/>
    <route edges="road_1164_1172 road_1172_20871 road_20871_20870 road_20870_767 road_767_15059 road_15059_18757" id="route80"/>
    <route edges="road_15058_767 road_767_20870 road_20870_20871 road_20871_1172 road_1172_1171 road_1171_18756 road_18756_764 road_764_15059 road_15059_1162" id="route81"/>
    <route edges="road_766_767 road_767_20870 road_20870_764 road_764_1172 road_1172_20871 road_20871_20872" id="route82"/>
    <route edges="road_20874_20870 road_20870_764 road_764_1172 road_1172_20871 road_20871_4424" id="route83"/>
    <route edges="road_4446_18756 road_18756_764 road_764_15059 road_15059_767 road_767_20870 road_20870_20871 road_20871_20872" id="route84"/>
    <route edges="road_766_767 road_767_15058" id="route85"/>
    <route edges="road_20872_20871 road_20871_20870 road_20870_767 road_767_15059 road_15059_764 road_764_20870 road_20870_20874" id="route86"/>
    <route edges="road_20872_20871 road_20871_20870 road_20870_767 road_767_15059 road_15059_18757" id="route87"/>
    <route edges="road_1162_15059 road_15059_764 road_764_1172 road_1172_1171 road_1171_18756 road_18756_764 road_764_20870 road_20870_20874" id="route88"/>
    <route edges="road_15058_767 road_767_20870 road_20870_20871 road_20871_1172 road_1172_764 road_764_20870 road_20870_20874" id="route89"/>
    <route edges="road_18755_1171 road_1171_1172 road_1172_764 road_764_20870 road_20870_20871 road_20871_4424" id="route90"/>
    <route edges="road_1162_15059 road_15059_18757" id="route91"/>
    <route edges="road_20874_20870 road_20870_20871 road_20871_20872" id="route92"/>
    <route edges="road_15058_767 road_767_15059 road_15059_764 road_764_1172 road_1172_20871 road_20871_20870 road_20870_767 road_767_766" id="route93"/>
    <route edges="road_4424_20871 road_20871_1172 road_1172_764 road_764_15059 road_15059_18757" id="route94"/>
    <route edges="road_4424_20871 road_20871_20870 road_20870_767 road_767_15059 road_15059_764 road_764_18756 road_18756_1171 road_1171_1172 road_1172_764 road_764_20870 road_20870_20874" id="route95"/>
    <route edges="road_1162_15059 road_15059_764 road_764_1172 road_1172_20871 road_20871_4424" id="route96"/>
    <route edges="road_627_18756 road_18756_764 road_764_20870 road_20870_20871 road_20871_1172 road_1172_1164" id="route97"/>
    <route edges="road_18757_15059 road_15059_764 road_764_20870 road_20870_20871 road_20871_4424" id="route98"/>
    <route edges="road_18757_15059 road_15059_764 road_764_18756 road_18756_1171 road_1171_1172 road_1172_764 road_764_20870 road_20870_20874" id="route99"/>
    <route edges="road_18755_1171 road_1171_18756 road_18756_764 road_764_20870 road_20870_20871 road_20871_20872" id="route100"/>
    <route edges="road_18755_1171 road_1171_1172 road_1172_20871 road_20871_20872" id="route101"/>
    <route edges="road_1162_15059 road_15059_767 road_767_20870 road_20870_20871 road_20871_1172 road_1172_764 road_764_20870 road_20870_20874" id="route102"/>
    <route edges="road_1162_15059 road_15059_764 road_764_20870 road_20870_20871 road_20871_1172 road_1172_1171 road_1171_18755" id="route103"/>
    <route edges="road_4446_18756 road_18756_764 road_764_20870 road_20870_20871 road_20871_20872" id="route104"/>
    <route edges="road_18755_1171 road_1171_1172 road_1172_764 road_764_15059 road_15059_18757" id="route105"/>
    <route edges="road_18757_15059 road_15059_764 road_764_1172 road_1172_20871 road_20871_20870 road_20870_767 road_767_15058" id="route106"/>
    <route edges="road_1164_1172 road_1172_764 road_764_15059 road_15059_18757" id="route107"/>
    <route edges="road_15058_767 road_767_15059 road_15059_764 road_764_1172 road_1172_1171 road_1171_18756 road_18756_764 road_764_20870 road_20870_20874" id="route108"/>
    <route edges="road_766_767 road_767_20870 road_20870_20871 road_20871_1172 road_1172_1171 road_1171_18756 road_18756_764 road_764_20870 road_20870_20874" id="route109"/>
    <route edges="road_20872_20871 road_20871_20870 road_20870_767 road_767_15059 road_15059_764 road_764_18756 road_18756_1171 road_1171_1172 road_1172_764 road_764_20870 road_20870_20874" id="route110"/>
    <route edges="road_627_18756 road_18756_1171 road_1171_1172 road_1172_20871 road_20871_20870 road_20870_767 road_767_15059 road_15059_18757" id="route111"/>
    <route edges="road_4446_18756 road_18756_764 road_764_1172 road_1172_20871 road_20871_4424" id="route112"/>
    <route edges="road_18755_1171 road_1171_1172 road_1172_20871 road_20871_20870 road_20870_767 road_767_15059 road_15059_18757" id="route113"/>
    <route edges="road_20872_20871 road_20871_1172 road_1172_1171 road_1171_18756 road_18756_764 road_764_15059 road_15059_18757" id="route114"/>
    <route edges="road_1162_15059 road_15059_764 road_764_20870 road_20870_767 road_767_15059 road_15059_18757" id="route115"/>
    <route edges="road_18755_1171 road_1171_1172 road_1172_764 road_764_20870 road_20870_767 road_767_15059 road_15059_18757" id="route116"/>
    <route edges="road_627_18756 road_18756_764 road_764_15059 road_15059_767 road_767_20870 road_20870_20871 road_20871_1172 road_1172_764 road_764_20870 road_20870_20874" id="route117"/>
    <route edges="road_1162_15059 road_15059_764 road_764_18756 road_18756_1171 road_1171_1172 road_1172_764 road_764_20870 road_20870_767 road_767_15059 road_15059_18757" id="route118"/>
    <route edges="road_627_18756 road_18756_1171 road_1171_1172 road_1172_20871 road_20871_4424" id="route119"/>
    <route edges="road_18755_1171 road_1171_1172 road_1172_20871 road_20871_20870 road_20870_764 road_764_15059 road_15059_18757" id="route120"/>
    <route edges="road_20872_20871 road_20871_1172 road_1172_1171 road_1171_18756 road_18756_764 road_764_20870 road_20870_767 road_767_15059 road_15059_18757" id="route121"/>
    <route edges="road_4446_18756 road_18756_1171 road_1171_1172 road_1172_20871 road_20871_20870 road_20870_767 road_767_15059 road_15059_18757" id="route122"/>
    <route edges="road_4446_18756 road_18756_764 road_764_1172 road_1172_20871 road_20871_20872" id="route123"/>
    <route edges="road_18755_1171 road_1171_18756 road_18756_764 road_764_20870 road_20870_767 road_767_15059 road_15059_18757" id="route124"/>
    <route edges="road_766_767 road_767_15059 road_15059_764 road_764_20870 road_20870_20871 road_20871_20872" id="route125"/>
    <route edges="road_4446_18756 road_18756_764 road_764_20870 road_20870_767 road_767_15059 road_15059_18757" id="route126"/>
    <route edges="road_4424_20871 road_20871_1172 road_1172_1171 road_1171_18756 road_18756_764 road_764_15059 road_15059_18757" id="route127"/>
    <route edges="road_1162_15059 road_15059_764 road_764_1172 road_1172_20871 road_20871_20872" id="route128"/>
    <route edges="road_18757_15059 road_15059_764 road_764_1172 road_1172_20871 road_20871_20872" id="route129"/>
    <route edges="road_15058_767 road_767_20870 road_20870_20871 road_20871_4424" id="route130"/>
    <route edges="road_627_18756 road_18756_764 road_764_1172 road_1172_20871 road_20871_20872" id="route131"/>
    <route edges="road_627_18756 road_18756_764 road_764_1172 road_1172_20871 road_20871_20870 road_20870_764 road_764_15059 road_15059_18757" id="route132"/>
    <route edges="road_627_18756 road_18756_1171 road_1171_1172 road_1172_20871 road_20871_20872" id="route133"/>
    <route edges="road_15058_767 road_767_20870 road_20870_764 road_764_1172 road_1172_20871 road_20871_20872" id="route134"/>
    <route edges="road_15058_767 road_767_20870 road_20870_20871 road_20871_1172 road_1172_1164" id="route135"/>
    <route edges="road_1164_1172 road_1172_1171 road_1171_18756 road_18756_764 road_764_1172 road_1172_20871 road_20871_20872" id="route136"/>
    <route edges="road_4446_18756 road_18756_764 road_764_15059 road_15059_767 road_767_20870 road_20870_20871 road_20871_1172 road_1172_764 road_764_20870 road_20870_20874" id="route137"/>
    <route edges="road_20872_20871 road_20871_1172 road_1172_764 road_764_15059 road_15059_18757" id="route138"/>
    <route edges="road_4446_18756 road_18756_1171 road_1171_1172 road_1172_764 road_764_20870 road_20870_767 road_767_15059 road_15059_18757" id="route139"/>
    <route edges="road_18755_1171 road_1171_1172 road_1172_20871 road_20871_20870 road_20870_20874" id="route140"/>
    <route edges="road_20874_20870 road_20870_20871 road_20871_1172 road_1172_764 road_764_15059 road_15059_18757" id="route141"/>
    <route edges="road_4424_20871 road_20871_20872" id="route142"/>
    <route edges="road_15058_767 road_767_20870 road_20870_764 road_764_15059 road_15059_18757" id="route143"/>
    <route edges="road_4424_20871 road_20871_1172 road_1172_764 road_764_20870 road_20870_20871 road_20871_20872" id="route144"/>
    <route edges="road_18757_15059 road_15059_764 road_764_1172 road_1172_20871 road_20871_20870 road_20870_764 road_764_18756 road_18756_4446" id="route145"/>
    <route edges="road_4446_18756 road_18756_1171 road_1171_1172 road_1172_20871 road_20871_4424" id="route146"/>
    <route edges="road_627_18756 road_18756_764 road_764_20870 road_20870_20871 road_20871_4424" id="route147"/>
    <route edges="road_20874_20870 road_20870_767 road_767_15059 road_15059_764 road_764_1172 road_1172_20871 road_20871_20872" id="route148"/>
    <route edges="road_766_767 road_767_20870 road_20870_764 road_764_1172 road_1172_20871 road_20871_20870 road_20870_20874" id="route149"/>
    <route edges="road_1164_1172 road_1172_1171 road_1171_18756 road_18756_764 road_764_1172 road_1172_20871 road_20871_20870 road_20870_767 road_767_15059 road_15059_764 road_764_20870 road_20870_20874" id="route150"/>
    <route edges="road_4424_20871 road_20871_1172 road_1172_764 road_764_20870 road_20870_767 road_767_15059 road_15059_18757" id="route151"/>
    <route edges="road_1164_1172 road_1172_20871 road_20871_20870 road_20870_767 road_767_15058" id="route152"/>
    <route edges="road_627_18756 road_18756_764 road_764_1172 road_1172_20871 road_20871_4424" id="route153"/>
    <route edges="road_4446_18756 road_18756_764 road_764_1172 road_1172_20871 road_20871_20870 road_20870_767 road_767_766" id="route154"/>
    <route edges="road_4446_18756 road_18756_764 road_764_1172 road_1172_20871 road_20871_20870 road_20870_767 road_767_15059 road_15059_764 road_764_20870 road_20870_20874" id="route155"/>
    <route edges="road_766_767 road_767_20870 road_20870_20871 road_20871_1172 road_1172_1171 road_1171_18755" id="route156"/>
    <route edges="road_18757_15059 road_15059_764 road_764_18756 road_18756_1171 road_1171_1172 road_1172_20871 road_20871_20872" id="route157"/>
    <route edges="road_627_18756 road_18756_764 road_764_1172 road_1172_20871 road_20871_20870 road_20870_767 road_767_766" id="route158"/>
    <route edges="road_766_767 road_767_20870 road_20870_764 road_764_15059 road_15059_18757" id="route159"/>
    <route edges="road_18757_15059 road_15059_767 road_767_20870 road_20870_20871 road_20871_4424" id="route160"/>
    <route edges="road_4424_20871 road_20871_20870 road_20870_764 road_764_1172 road_1172_20871 road_20871_20872" id="route161"/>
    <route edges="road_627_18756 road_18756_1171 road_1171_1172 road_1172_764 road_764_15059 road_15059_18757" id="route162"/>
    <route edges="road_1162_15059 road_15059_764 road_764_18756 road_18756_1171 road_1171_1172 road_1172_20871 road_20871_20870 road_20870_767 road_767_15059 road_15059_18757" id="route163"/>
    <route edges="road_4446_18756 road_18756_764 road_764_20870 road_20870_20871 road_20871_4424" id="route164"/>
    <route edges="road_20872_20871 road_20871_1172 road_1172_764 road_764_20870 road_20870_767 road_767_15059 road_15059_18757" id="route165"/>
    <route edges="road_18755_1171 road_1171_1172 road_1172_764 road_764_15059 road_15059_767 road_767_20870 road_20870_20871 road_20871_20872" id="route166"/>
    <route edges="road_1162_15059 road_15059_767 road_767_20870 road_20870_20871 road_20871_4424" id="route167"/>
    <route edges="road_20872_20871 road_20871_20870 road_20870_764 road_764_15059 road_15059_767 road_767_20870 road_20870_20874" id="route168"/>
    <route edges="road_4446_18756 road_18756_1171 road_1171_1172 road_1172_20871 road_20871_20872" id="route169"/>
    <route edges="road_15058_767 road_767_20870 road_20870_20871 road_20871_1172 road_1172_1171 road_1171_18756 road_18756_627" id="route170"/>
    <route edges="road_627_18756 road_18756_1171 road_1171_1172 road_1172_764 road_764_20870 road_20870_20871 road_20871_20872" id="route171"/>
    <route edges="road_1162_15059 road_15059_764 road_764_20870 road_20870_20871 road_20871_4424" id="route172"/>
    <route edges="road_766_767 road_767_15059 road_15059_764 road_764_1172 road_1172_20871 road_20871_20872" id="route173"/>
    <route edges="road_627_18756 road_18756_764 road_764_15059 road_15059_767 road_767_20870 road_20870_20871 road_20871_1172 road_1172_1164" id="route174"/>
    <route edges="road_20874_20870 road_20870_767 road_767_15059 road_15059_764 road_764_1172 road_1172_20871 road_20871_4424" id="route175"/>
    <route edges="road_627_18756 road_18756_764 road_764_20870 road_20870_20871 road_20871_1172 road_1172_1171 road_1171_18755" id="route176"/>
    <route edges="road_1164_1172 road_1172_764 road_764_15059 road_15059_767 road_767_20870 road_20870_20871 road_20871_20872" id="route177"/>
    <route edges="road_20872_20871 road_20871_20870 road_20870_764 road_764_1172 road_1172_20871 road_20871_4424" id="route178"/>
    <route edges="road_18755_1171 road_1171_18756 road_18756_764 road_764_20870 road_20870_767 road_767_15059 road_15059_764 road_764_1172 road_1172_20871 road_20871_4424" id="route179"/>
    <route edges="road_1164_1172 road_1172_1171 road_1171_18756 road_18756_764 road_764_20870 road_20870_767 road_767_15059 road_15059_18757" id="route180"/>
    <route edges="road_627_18756 road_18756_764 road_764_15059 road_15059_767 road_767_20870 road_20870_764 road_764_1172 road_1172_20871 road_20871_20872" id="route181"/>
    <route edges="road_627_18756 road_18756_1171 road_1171_1172 road_1172_20871 road_20871_20870 road_20870_767 road_767_15059 road_15059_764 road_764_20870 road_20870_20874" id="route182"/>
    <route edges="road_20874_20870 road_20870_767 road_767_15059 road_15059_764 road_764_1172 road_1172_1171 road_1171_18756 road_18756_764 road_764_20870 road_20870_20871 road_20871_20872" id="route183"/>
    <route edges="road_766_767 road_767_20870 road_20870_764 road_764_1172 road_1172_20871 road_20871_4424" id="route184"/>
    <route edges="road_4446_18756 road_18756_1171 road_1171_1172 road_1172_764 road_764_20870 road_20870_20871 road_20871_4424" id="route185"/>
    <route edges="road_4446_18756 road_18756_1171 road_1171_1172 road_1172_20871 road_20871_20870 road_20870_767 road_767_15059 road_15059_764 road_764_20870 road_20870_20874" id="route186"/>
    <route edges="road_1162_15059 road_15059_764 road_764_20870 road_20870_20871 road_20871_1172 road_1172_1171 road_1171_18756 road_18756_627" id="route187"/>
    <route edges="road_4446_18756 road_18756_764 road_764_1172 road_1172_20871 road_20871_20870 road_20870_20874" id="route188"/>
    <route edges="road_1164_1172 road_1172_20871 road_20871_20870 road_20870_764 road_764_15059 road_15059_18757" id="route189"/>
    <route edges="road_1162_15059 road_15059_767 road_767_20870 road_20870_764 road_764_15059 road_15059_18757" id="route190"/>
    <route edges="road_18755_1171 road_1171_1172 road_1172_764 road_764_15059 road_15059_767 road_767_20870 road_20870_20874" id="route191"/>
    <route edges="road_766_767 road_767_20870 road_20870_20871 road_20871_1172 road_1172_1164" id="route192"/>
    <route edges="road_627_18756 road_18756_764 road_764_15059 road_15059_767 road_767_20870 road_20870_20871 road_20871_20872" id="route193"/>
    <route edges="road_15058_767 road_767_20870 road_20870_20871 road_20871_1172 road_1172_1171 road_1171_18756 road_18756_764 road_764_20870 road_20870_20874" id="route194"/>
    <route edges="road_1164_1172 road_1172_20871 road_20871_20870 road_20870_767 road_767_766" id="route195"/>
    <route edges="road_766_767 road_767_15059 road_15059_764 road_764_18756 road_18756_4446" id="route196"/>
    <route edges="road_18755_1171 road_1171_1172 road_1172_20871 road_20871_20870 road_20870_764 road_764_15059 road_15059_1162" id="route197"/>
    <route edges="road_18757_15059 road_15059_767 road_767_20870 road_20870_20871 road_20871_1172 road_1172_1164" id="route198"/>
    <route edges="road_20874_20870 road_20870_767 road_767_15059 road_15059_764 road_764_20870 road_20870_20871 road_20871_20872" id="route199"/>
    <route edges="road_4424_20871 road_20871_1172 road_1172_1171 road_1171_18756 road_18756_764 road_764_20870 road_20870_20871 road_20871_20872" id="route200"/>
    <route edges="road_627_18756 road_18756_1171 road_1171_1172 road_1172_20871 road_20871_20870 road_20870_764 road_764_15059 road_15059_18757" id="route201"/>
    <route edges="road_1162_15059 road_15059_764 road_764_1172 road_1172_20871 road_20871_20870 road_20870_767 road_767_766" id="route202"/>
    <route edges="road_18755_1171 road_1171_1172 road_1172_764 road_764_15059 road_15059_767 road_767_20870 road_20870_20871 road_20871_4424" id="route203"/>
    <route edges="road_4446_18756 road_18756_1171 road_1171_1172 road_1172_764 road_764_15059 road_15059_767 road_767_20870 road_20870_20871 road_20871_20872" id="route204"/>
    <route edges="road_18757_15059 road_15059_764 road_764_1172 road_1172_20871 road_20871_20870 road_20870_767 road_767_766" id="route205"/>
    <route edges="road_18755_1171 road_1171_1172 road_1172_20871 road_20871_20870 road_20870_764 road_764_18756 road_18756_4446" id="route206"/>
    <route edges="road_15058_767 road_767_20870 road_20870_20871 road_20871_1172 road_1172_764 road_764_15059 road_15059_18757" id="route207"/>
    <route edges="road_1164_1172 road_1172_1171 road_1171_18756 road_18756_764 road_764_20870 road_20870_20871 road_20871_20872" id="route208"/>
    <route edges="road_766_767 road_767_20870 road_20870_20871 road_20871_1172 road_1172_1171 road_1171_18756 road_18756_627" id="route209"/>
    <route edges="road_766_767 road_767_15059 road_15059_764 road_764_1172 road_1172_20871 road_20871_20870 road_20870_767 road_767_15058" id="route210"/>
    <route edges="road_20874_20870 road_20870_764 road_764_18756 road_18756_1171 road_1171_1172 road_1172_20871 road_20871_20872" id="route211"/>
    <route edges="road_18757_15059 road_15059_764 road_764_20870 road_20870_20871 road_20871_1172 road_1172_764 road_764_18756 road_18756_4446" id="route212"/>
    <route edges="road_18755_1171 road_1171_18756 road_18756_764 road_764_20870 road_20870_20871 road_20871_1172 road_1172_1164" id="route213"/>
    <route edges="road_20874_20870 road_20870_764 road_764_1172 road_1172_20871 road_20871_20870 road_20870_767 road_767_766" id="route214"/>
    <route edges="road_4424_20871 road_20871_20870 road_20870_767 road_767_15059 road_15059_764 road_764_1172 road_1172_20871 road_20871_20872" id="route215"/>
    <route edges="road_4446_18756 road_18756_764 road_764_1172 road_1172_20871 road_20871_20870 road_20870_764 road_764_15059 road_15059_767 road_767_15058" id="route216"/>
    <route edges="road_1162_15059 road_15059_764 road_764_1172 road_1172_20871 road_20871_20870 road_20870_767 road_767_15058" id="route217"/>
    <route edges="road_766_767 road_767_20870 road_20870_20871 road_20871_1172 road_1172_764 road_764_18756 road_18756_4446" id="route218"/>
    <route edges="road_766_767 road_767_20870 road_20870_20871 road_20871_1172 road_1172_764 road_764_15059 road_15059_1162" id="route219"/>
    <route edges="road_766_767 road_767_15059 road_15059_764 road_764_1172 road_1172_20871 road_20871_4424" id="route220"/>
    <route edges="road_18755_1171 road_1171_18756 road_18756_764 road_764_1172 road_1172_20871 road_20871_20872" id="route221"/>
    <route edges="road_766_767 road_767_20870 road_20870_764 road_764_18756 road_18756_1171 road_1171_1172 road_1172_20871 road_20871_4424" id="route222"/>