<?xml version="1.0" encoding="UTF-8"?>

<!-- generated on 2024-02-05 14:30:10 by Eclipse SUMO netedit Version 1.18.0
<configuration xmlns:xsi="http://www.w3.org/2001/XMLSchema-instance" xsi:noNamespaceSchemaLocation="http://sumo.dlr.de/xsd/neteditConfiguration.xsd">

    <input>
        <sumo-net-file value="C:\Users\77829\Desktop\12路口仿真\SH2_edit.net.xml"/>
    </input>

    <output>
        <output-file value="C:\Users\77829\Desktop\12路口仿真\SH2_edit.net.xml"/>
    </output>

    <processing>
        <geometry.min-radius.fix.railways value="false"/>
        <geometry.max-grade.fix value="false"/>
        <offset.disable-normalization value="true"/>
        <lefthand value="0"/>
    </processing>

    <junctions>
        <no-turnarounds value="true"/>
        <junctions.corner-detail value="5"/>
        <junctions.limit-turn-speed value="5.50"/>
        <rectangular-lane-cut value="0"/>
    </junctions>

    <pedestrian>
        <walkingareas value="0"/>
    </pedestrian>

</configuration>
-->

<net version="1.16" junctionCornerDetail="5" limitTurnSpeed="5.50" xmlns:xsi="http://www.w3.org/2001/XMLSchema-instance" xsi:noNamespaceSchemaLocation="http://sumo.dlr.de/xsd/net_file.xsd">

    <location netOffset="546.48,1167.68" convBoundary="-1161.43,0.00,1211.20,2546.73" origBoundary="-546.48,-1167.68,664.72,864.58" projParameter="!"/>

    <edge id=":inter_0_0" function="internal">
        <lane id=":inter_0_0_0" index="0" speed="4.08" length="5.84" width="4.00" shape="419.29,330.23 419.82,328.51 420.64,327.74 421.74,327.94 423.13,329.09"/>
    </edge>
    <edge id=":inter_1164_0" function="internal">
        <lane id=":inter_1164_0_0" index="0" speed="4.08" length="5.84" width="4.00" shape="888.33,939.43 890.13,939.44 891.10,940.00 891.23,941.11 890.53,942.77"/>
    </edge>
    <edge id=":inter_1171_0" function="internal">
        <lane id=":inter_1171_0_0" index="0" speed="6.06" length="9.07" shape="448.55,448.80 447.36,446.51 445.79,445.34 443.83,445.29 441.49,446.36"/>
    </edge>
    <edge id=":inter_1171_1" function="internal">
        <lane id=":inter_1171_1_0" index="0" speed="13.89" length="34.80" shape="448.55,448.80 437.79,415.55"/>
        <lane id=":inter_1171_1_1" index="1" speed="13.89" length="34.80" shape="451.57,447.74 440.85,414.63"/>
        <lane id=":inter_1171_1_2" index="2" speed="16.67" length="34.80" width="4.00" shape="454.97,446.56 444.30,413.59"/>
    </edge>
    <edge id=":inter_1171_4" function="internal">
        <lane id=":inter_1171_4_0" index="0" speed="12.88" length="8.72" width="4.00" shape="454.97,446.56 453.28,438.17 453.31,438.01"/>
    </edge>
    <edge id=":inter_1171_5" function="internal">
        <lane id=":inter_1171_5_0" index="0" speed="4.08" length="2.02" width="4.00" shape="454.97,446.56 455.42,444.82 455.57,444.66"/>
    </edge>
    <edge id=":inter_1171_24" function="internal">
        <lane id=":inter_1171_24_0" index="0" speed="12.88" length="23.44" width="4.00" shape="453.31,438.01 454.41,430.78 458.34,424.40 465.08,419.01"/>
    </edge>
    <edge id=":inter_1171_25" function="internal">
        <lane id=":inter_1171_25_0" index="0" speed="4.08" length="3.83" width="4.00" shape="455.57,444.66 456.20,444.02 457.31,444.16 458.75,445.25"/>
    </edge>
    <edge id=":inter_1171_6" function="internal">
        <lane id=":inter_1171_6_0" index="0" speed="9.50" length="17.23" shape="470.63,428.27 467.01,431.16 464.89,434.59 464.27,438.54 465.17,443.02"/>
    </edge>
    <edge id=":inter_1171_7" function="internal">
        <lane id=":inter_1171_7_0" index="0" speed="13.89" length="34.40" shape="470.63,428.27 441.49,446.36"/>
        <lane id=":inter_1171_7_1" index="1" speed="13.89" length="34.40" shape="468.99,425.53 439.76,443.66"/>
        <lane id=":inter_1171_7_2" index="2" speed="16.67" length="34.40" width="4.00" shape="467.14,422.44 437.82,440.64"/>
    </edge>
    <edge id=":inter_1171_10" function="internal">
        <lane id=":inter_1171_10_0" index="0" speed="10.53" length="7.07" width="4.00" shape="467.14,422.44 460.62,425.18"/>
    </edge>
    <edge id=":inter_1171_11" function="internal">
        <lane id=":inter_1171_11_0" index="0" speed="4.08" length="1.98" width="4.00" shape="467.14,422.44 465.34,422.35 465.19,422.26"/>
    </edge>
    <edge id=":inter_1171_26" function="internal">
        <lane id=":inter_1171_26_0" index="0" speed="10.53" length="22.80" width="4.00" shape="460.62,425.18 459.30,425.73 452.88,425.36 447.88,421.31 444.30,413.59"/>
    </edge>
    <edge id=":inter_1171_27" function="internal">
        <lane id=":inter_1171_27_0" index="0" speed="4.08" length="3.87" width="4.00" shape="465.19,422.26 464.39,421.75 464.31,420.64 465.08,419.01"/>
    </edge>
    <edge id=":inter_1171_12" function="internal">
        <lane id=":inter_1171_12_0" index="0" speed="6.04" length="9.07" shape="454.65,410.49 455.73,412.84 457.25,414.06 459.20,414.18 461.58,413.18"/>
    </edge>
    <edge id=":inter_1171_13" function="internal">
        <lane id=":inter_1171_13_0" index="0" speed="13.89" length="34.33" shape="454.65,410.49 465.17,443.02"/>
        <lane id=":inter_1171_13_1" index="1" speed="13.89" length="34.33" shape="451.58,411.41 462.15,444.07"/>
        <lane id=":inter_1171_13_2" index="2" speed="16.67" length="34.33" width="4.00" shape="448.13,412.45 458.75,445.25"/>
    </edge>
    <edge id=":inter_1171_16" function="internal">
        <lane id=":inter_1171_16_0" index="0" speed="13.39" length="7.34" width="4.00" shape="448.13,412.45 449.31,419.69"/>
    </edge>
    <edge id=":inter_1171_17" function="internal">
        <lane id=":inter_1171_17_0" index="0" speed="4.08" length="1.97" width="4.00" shape="448.13,412.45 447.61,414.17 447.49,414.28"/>
    </edge>
    <edge id=":inter_1171_28" function="internal">
        <lane id=":inter_1171_28_0" index="0" speed="13.39" length="25.17" width="4.00" shape="449.31,419.69 449.52,420.99 448.27,428.53 444.36,435.08 437.82,440.64"/>
    </edge>
    <edge id=":inter_1171_29" function="internal">
        <lane id=":inter_1171_29_0" index="0" speed="4.08" length="3.87" width="4.00" shape="447.49,414.28 446.79,414.94 445.69,414.74 444.30,413.59"/>
    </edge>
    <edge id=":inter_1171_18" function="internal">
        <lane id=":inter_1171_18_0" index="0" speed="10.14" length="18.43" shape="431.98,431.55 435.68,428.41 437.88,424.69 438.58,420.41 437.79,415.55"/>
    </edge>
    <edge id=":inter_1171_19" function="internal">
        <lane id=":inter_1171_19_0" index="0" speed="13.89" length="34.73" shape="431.98,431.55 461.58,413.18"/>
        <lane id=":inter_1171_19_1" index="1" speed="13.89" length="34.73" shape="433.71,434.24 463.23,415.92"/>
        <lane id=":inter_1171_19_2" index="2" speed="16.67" length="34.73" width="4.00" shape="435.66,437.27 465.08,419.01"/>
    </edge>
    <edge id=":inter_1171_22" function="internal">
        <lane id=":inter_1171_22_0" index="0" speed="10.54" length="8.43" width="4.00" shape="435.66,437.27 443.33,433.77"/>
    </edge>
    <edge id=":inter_1171_23" function="internal">
        <lane id=":inter_1171_23_0" index="0" speed="4.08" length="2.01" width="4.00" shape="435.66,437.27 437.46,437.30 437.64,437.41"/>
    </edge>
    <edge id=":inter_1171_30" function="internal">
        <lane id=":inter_1171_30_0" index="0" speed="10.54" length="21.25" width="4.00" shape="443.33,433.77 449.73,433.93 454.87,437.76 458.75,445.25"/>
    </edge>
    <edge id=":inter_1171_31" function="internal">
        <lane id=":inter_1171_31_0" index="0" speed="4.08" length="3.83" width="4.00" shape="437.64,437.41 438.42,437.87 438.54,438.98 437.82,440.64"/>
    </edge>
    <edge id=":inter_1172_0" function="internal">
        <lane id=":inter_1172_0_0" index="0" speed="6.16" length="9.05" shape="676.08,1099.51 674.74,1097.34 673.09,1096.26 671.10,1096.26 668.80,1097.34"/>
    </edge>
    <edge id=":inter_1172_1" function="internal">
        <lane id=":inter_1172_1_0" index="0" speed="13.89" length="34.17" shape="676.08,1099.51 663.62,1067.43"/>
        <lane id=":inter_1172_1_1" index="1" speed="13.89" length="34.17" shape="679.01,1098.24 666.64,1066.38"/>
        <lane id=":inter_1172_1_2" index="2" speed="16.67" length="34.17" width="4.00" shape="682.32,1096.81 670.05,1065.19"/>
    </edge>
    <edge id=":inter_1172_4" function="internal">
        <lane id=":inter_1172_4_0" index="0" speed="12.56" length="8.60" width="4.00" shape="682.32,1096.81 680.17,1088.89 680.21,1088.50"/>
    </edge>
    <edge id=":inter_1172_5" function="internal">
        <lane id=":inter_1172_5_0" index="0" speed="4.08" length="2.03" width="4.00" shape="682.32,1096.81 682.64,1095.04 682.79,1094.86"/>
    </edge>
    <edge id=":inter_1172_24" function="internal">
        <lane id=":inter_1172_24_0" index="0" speed="12.56" length="22.76" width="4.00" shape="680.21,1088.50 680.91,1081.73 684.53,1075.34 691.04,1069.71"/>
    </edge>
    <edge id=":inter_1172_25" function="internal">
        <lane id=":inter_1172_25_0" index="0" speed="4.08" length="3.81" width="4.00" shape="682.79,1094.86 683.36,1094.18 684.48,1094.24 685.99,1095.22"/>
    </edge>
    <edge id=":inter_1172_6" function="internal">
        <lane id=":inter_1172_6_0" index="0" speed="9.08" length="16.08" shape="696.99,1078.72 693.56,1081.65 691.63,1084.93 691.18,1088.55 692.23,1092.53"/>
    </edge>
    <edge id=":inter_1172_7" function="internal">
        <lane id=":inter_1172_7_0" index="0" speed="13.89" length="33.79" shape="696.99,1078.72 668.80,1097.34"/>
        <lane id=":inter_1172_7_1" index="1" speed="13.89" length="33.79" shape="695.23,1076.05 667.04,1094.68"/>
        <lane id=":inter_1172_7_2" index="2" speed="16.67" length="33.79" width="4.00" shape="693.24,1073.04 665.05,1091.67"/>
    </edge>
    <edge id=":inter_1172_10" function="internal">
        <lane id=":inter_1172_10_0" index="0" speed="10.53" length="7.79" width="4.00" shape="693.24,1073.04 686.20,1076.37"/>
    </edge>
    <edge id=":inter_1172_11" function="internal">
        <lane id=":inter_1172_11_0" index="0" speed="4.08" length="1.99" width="4.00" shape="693.24,1073.04 691.44,1073.04 691.27,1072.94"/>
    </edge>
    <edge id=":inter_1172_26" function="internal">
        <lane id=":inter_1172_26_0" index="0" speed="10.53" length="22.08" width="4.00" shape="686.20,1076.37 685.55,1076.68 679.12,1076.58 673.95,1072.75 670.05,1065.19"/>
    </edge>
    <edge id=":inter_1172_27" function="internal">
        <lane id=":inter_1172_27_0" index="0" speed="4.08" length="3.85" width="4.00" shape="691.27,1072.94 690.47,1072.48 690.34,1071.37 691.04,1069.71"/>
    </edge>
    <edge id=":inter_1172_12" function="internal">
        <lane id=":inter_1172_12_0" index="0" speed="6.04" length="9.07" shape="680.25,1061.65 681.43,1063.94 683.00,1065.11 684.95,1065.13 687.29,1064.03"/>
    </edge>
    <edge id=":inter_1172_13" function="internal">
        <lane id=":inter_1172_13_0" index="0" speed="13.89" length="33.37" shape="680.25,1061.65 692.23,1092.53"/>
        <lane id=":inter_1172_13_1" index="1" speed="13.89" length="33.37" shape="677.22,1062.70 689.29,1093.79"/>
        <lane id=":inter_1172_13_2" index="2" speed="16.67" length="33.37" width="4.00" shape="673.82,1063.88 685.99,1095.22"/>
    </edge>
    <edge id=":inter_1172_16" function="internal">
        <lane id=":inter_1172_16_0" index="0" speed="13.04" length="6.87" width="4.00" shape="673.82,1063.88 675.24,1070.60"/>
    </edge>
    <edge id=":inter_1172_17" function="internal">
        <lane id=":inter_1172_17_0" index="0" speed="4.08" length="1.95" width="4.00" shape="673.82,1063.88 673.37,1065.63 673.27,1065.73"/>
    </edge>
    <edge id=":inter_1172_28" function="internal">
        <lane id=":inter_1172_28_0" index="0" speed="13.04" length="24.83" width="4.00" shape="675.24,1070.60 675.61,1072.32 674.74,1079.77 671.22,1086.22 665.05,1091.67"/>
    </edge>
    <edge id=":inter_1172_29" function="internal">
        <lane id=":inter_1172_29_0" index="0" speed="4.08" length="3.89" width="4.00" shape="673.27,1065.73 672.59,1066.43 671.48,1066.28 670.05,1065.19"/>
    </edge>
    <edge id=":inter_1172_18" function="internal">
        <lane id=":inter_1172_18_0" index="0" speed="9.70" length="17.29" shape="659.09,1082.66 662.37,1079.73 664.22,1076.21 664.64,1072.11 663.62,1067.43"/>
    </edge>
    <edge id=":inter_1172_19" function="internal">
        <lane id=":inter_1172_19_0" index="0" speed="13.89" length="33.79" shape="659.09,1082.66 687.29,1064.03"/>
        <lane id=":inter_1172_19_1" index="1" speed="13.89" length="33.79" shape="660.86,1085.33 689.05,1066.70"/>
        <lane id=":inter_1172_19_2" index="2" speed="16.67" length="33.79" width="4.00" shape="662.84,1088.34 691.04,1069.71"/>
    </edge>
    <edge id=":inter_1172_22" function="internal">
        <lane id=":inter_1172_22_0" index="0" speed="10.59" length="7.79" width="4.00" shape="662.84,1088.34 669.89,1085.01"/>
    </edge>
    <edge id=":inter_1172_23" function="internal">
        <lane id=":inter_1172_23_0" index="0" speed="4.08" length="1.99" width="4.00" shape="662.84,1088.34 664.65,1088.34 664.81,1088.44"/>
    </edge>
    <edge id=":inter_1172_30" function="internal">
        <lane id=":inter_1172_30_0" index="0" speed="10.59" length="21.02" width="4.00" shape="669.89,1085.01 670.17,1084.88 676.47,1084.87 681.75,1088.32 685.99,1095.22"/>
    </edge>
    <edge id=":inter_1172_31" function="internal">
        <lane id=":inter_1172_31_0" index="0" speed="4.08" length="3.85" width="4.00" shape="664.81,1088.44 665.62,1088.90 665.75,1090.01 665.05,1091.67"/>
    </edge>
    <edge id=":inter_15059_0" function="internal">
        <lane id=":inter_15059_0_0" index="0" speed="9.27" length="16.18" shape="-598.35,1752.60 -601.53,1749.60 -605.00,1748.06 -608.75,1747.98 -612.78,1749.37"/>
    </edge>
    <edge id=":inter_15059_1" function="internal">
        <lane id=":inter_15059_1_0" index="0" speed="13.89" length="31.90" shape="-598.35,1752.60 -618.39,1727.73"/>
        <lane id=":inter_15059_1_1" index="1" speed="13.89" length="31.90" shape="-595.87,1750.57 -615.89,1725.73"/>
        <lane id=":inter_15059_1_2" index="2" speed="13.89" length="31.90" shape="-593.39,1748.55 -613.39,1723.74"/>
    </edge>
    <edge id=":inter_15059_4" function="internal">
        <lane id=":inter_15059_4_0" index="0" speed="10.10" length="27.25" shape="-593.39,1748.55 -597.37,1741.93 -597.91,1736.05 -594.99,1730.93 -588.61,1726.56"/>
    </edge>
    <edge id=":inter_15059_5" function="internal">
        <lane id=":inter_15059_5_0" index="0" speed="6.07" length="9.07" shape="-584.36,1735.16 -586.48,1736.62 -587.45,1738.32 -587.28,1740.28 -585.95,1742.48"/>
    </edge>
    <edge id=":inter_15059_6" function="internal">
        <lane id=":inter_15059_6_0" index="0" speed="13.89" length="31.80" shape="-584.36,1735.16 -612.78,1749.37"/>
        <lane id=":inter_15059_6_1" index="1" speed="13.89" length="31.80" shape="-585.78,1732.29 -614.23,1746.51"/>
        <lane id=":inter_15059_6_2" index="2" speed="13.89" length="31.80" shape="-587.20,1729.42 -615.67,1743.65"/>
    </edge>
    <edge id=":inter_15059_9" function="internal">
        <lane id=":inter_15059_9_0" index="0" speed="12.31" length="5.17" shape="-587.20,1729.42 -592.10,1731.08"/>
    </edge>
    <edge id=":inter_15059_20" function="internal">
        <lane id=":inter_15059_20_0" index="0" speed="12.31" length="24.16" shape="-592.10,1731.08 -594.67,1731.95 -601.52,1731.84 -607.76,1729.11 -613.39,1723.74"/>
    </edge>
    <edge id=":inter_15059_10" function="internal">
        <lane id=":inter_15059_10_0" index="0" speed="9.24" length="16.14" shape="-605.88,1717.76 -602.79,1720.69 -599.36,1722.18 -595.58,1722.22 -591.45,1720.82"/>
    </edge>
    <edge id=":inter_15059_11" function="internal">
        <lane id=":inter_15059_11_0" index="0" speed="13.89" length="31.79" shape="-605.88,1717.76 -585.95,1742.48"/>
        <lane id=":inter_15059_11_1" index="1" speed="13.89" length="31.79" shape="-608.38,1719.76 -588.43,1744.50"/>
        <lane id=":inter_15059_11_2" index="2" speed="13.89" length="31.79" shape="-610.88,1721.75 -590.91,1746.53"/>
    </edge>
    <edge id=":inter_15059_14" function="internal">
        <lane id=":inter_15059_14_0" index="0" speed="10.12" length="26.97" shape="-610.88,1721.75 -607.03,1728.33 -606.55,1734.17 -609.43,1739.28 -615.67,1743.65"/>
    </edge>
    <edge id=":inter_15059_15" function="internal">
        <lane id=":inter_15059_15_0" index="0" speed="6.11" length="9.06" shape="-620.00,1735.09 -617.90,1733.62 -616.94,1731.90 -617.10,1729.94 -618.39,1727.73"/>
    </edge>
    <edge id=":inter_15059_16" function="internal">
        <lane id=":inter_15059_16_0" index="0" speed="13.89" length="31.89" shape="-620.00,1735.09 -591.45,1720.82"/>
        <lane id=":inter_15059_16_1" index="1" speed="13.89" length="31.89" shape="-618.56,1737.94 -590.03,1723.69"/>
        <lane id=":inter_15059_16_2" index="2" speed="13.89" length="31.89" shape="-617.11,1740.80 -588.61,1726.56"/>
    </edge>
    <edge id=":inter_15059_19" function="internal">
        <lane id=":inter_15059_19_0" index="0" speed="12.33" length="5.39" shape="-617.11,1740.80 -612.02,1739.04"/>
    </edge>
    <edge id=":inter_15059_21" function="internal">
        <lane id=":inter_15059_21_0" index="0" speed="12.33" length="23.96" shape="-612.02,1739.04 -609.76,1738.27 -602.94,1738.38 -596.66,1741.13 -590.91,1746.53"/>
    </edge>
    <edge id=":inter_18755_0" function="internal">
        <lane id=":inter_18755_0_0" index="0" speed="4.08" length="5.84" width="4.00" shape="688.36,285.09 690.16,285.18 691.11,285.78 691.19,286.90 690.42,288.53"/>
    </edge>
    <edge id=":inter_18756_0" function="internal">
        <lane id=":inter_18756_0_0" index="0" speed="5.87" length="9.11" shape="355.72,509.61 354.69,507.17 353.22,505.95 351.31,505.95 348.96,507.16"/>
    </edge>
    <edge id=":inter_18756_1" function="internal">
        <lane id=":inter_18756_1_0" index="0" speed="13.89" length="41.23" shape="355.72,509.61 344.87,469.93"/>
        <lane id=":inter_18756_1_1" index="1" speed="13.89" length="41.23" shape="358.81,508.79 347.95,469.06"/>
        <lane id=":inter_18756_1_2" index="2" speed="13.89" length="41.23" shape="361.91,507.96 351.03,468.19"/>
        <lane id=":inter_18756_1_3" index="3" speed="13.89" length="41.23" shape="365.00,507.14 354.11,467.32"/>
        <lane id=":inter_18756_1_4" index="4" speed="16.67" length="41.23" width="4.00" shape="368.48,506.21 357.57,466.35"/>
    </edge>
    <edge id=":inter_18756_6" function="internal">
        <lane id=":inter_18756_6_0" index="0" speed="15.52" length="7.21" width="4.00" shape="368.48,506.21 367.67,499.05"/>
    </edge>
    <edge id=":inter_18756_7" function="internal">
        <lane id=":inter_18756_7_0" index="0" speed="4.08" length="1.98" width="4.00" shape="368.48,506.21 369.06,504.51 369.19,504.39"/>
    </edge>
    <edge id=":inter_18756_32" function="internal">
        <lane id=":inter_18756_32_0" index="0" speed="15.52" length="35.51" width="4.00" shape="367.67,499.05 367.29,495.68 369.59,486.14 375.38,477.58 384.66,470.01"/>
    </edge>
    <edge id=":inter_18756_33" function="internal">
        <lane id=":inter_18756_33_0" index="0" speed="4.08" length="3.86" width="4.00" shape="369.19,504.39 369.90,503.77 370.99,503.99 372.34,505.19"/>
    </edge>
    <edge id=":inter_18756_8" function="internal">
        <lane id=":inter_18756_8_0" index="0" speed="11.93" length="25.02" shape="390.49,479.10 386.49,482.87 384.26,487.91 383.80,494.22 385.10,501.79"/>
        <lane id=":inter_18756_8_1" index="1" speed="12.37" length="26.95" shape="390.49,479.10 385.24,483.60 382.08,489.02 381.00,495.36 382.01,502.62"/>
    </edge>
    <edge id=":inter_18756_10" function="internal">
        <lane id=":inter_18756_10_0" index="0" speed="13.89" length="50.28" shape="390.49,479.10 348.96,507.16"/>
        <lane id=":inter_18756_10_1" index="1" speed="13.89" length="50.28" shape="388.76,476.41 347.11,504.55"/>
        <lane id=":inter_18756_10_2" index="2" speed="16.67" length="50.28" width="4.00" shape="386.82,473.38 345.03,501.61"/>
    </edge>
    <edge id=":inter_18756_13" function="internal">
        <lane id=":inter_18756_13_0" index="0" speed="12.10" length="10.06" shape="386.82,473.38 377.92,478.06"/>
        <lane id=":inter_18756_13_1" index="1" speed="11.53" length="8.71" width="4.00" shape="386.82,473.38 379.04,477.30"/>
    </edge>
    <edge id=":inter_18756_15" function="internal">
        <lane id=":inter_18756_15_0" index="0" speed="4.08" length="1.97" width="4.00" shape="386.82,473.38 385.02,473.35 384.88,473.26"/>
    </edge>
    <edge id=":inter_18756_34" function="internal">
        <lane id=":inter_18756_34_0" index="0" speed="12.10" length="31.07" shape="377.92,478.06 375.85,479.14 366.51,480.77 359.15,477.18 354.11,467.32"/>
    </edge>
    <edge id=":inter_18756_35" function="internal">
        <lane id=":inter_18756_35_0" index="0" speed="11.53" length="28.48" width="4.00" shape="379.04,477.30 376.95,478.35 368.62,479.28 362.08,475.50 357.57,466.35"/>
    </edge>
    <edge id=":inter_18756_36" function="internal">
        <lane id=":inter_18756_36_0" index="0" speed="4.08" length="3.88" width="4.00" shape="384.88,473.26 384.06,472.77 383.94,471.66 384.66,470.01"/>
    </edge>
    <edge id=":inter_18756_16" function="internal">
        <lane id=":inter_18756_16_0" index="0" speed="5.96" length="9.09" shape="374.13,461.69 375.18,464.07 376.68,465.30 378.61,465.37 380.98,464.29"/>
    </edge>
    <edge id=":inter_18756_17" function="internal">
        <lane id=":inter_18756_17_0" index="0" speed="13.89" length="41.49" shape="374.13,461.69 385.10,501.79"/>
        <lane id=":inter_18756_17_1" index="1" speed="13.89" length="41.49" shape="371.05,462.55 382.01,502.62"/>
        <lane id=":inter_18756_17_2" index="2" speed="13.89" length="41.49" shape="367.97,463.42 378.91,503.44"/>
        <lane id=":inter_18756_17_3" index="3" speed="13.89" length="41.49" shape="364.89,464.29 375.82,504.26"/>
        <lane id=":inter_18756_17_4" index="4" speed="16.67" length="41.49" width="4.00" shape="361.42,465.26 372.34,505.19"/>
    </edge>
    <edge id=":inter_18756_22" function="internal">
        <lane id=":inter_18756_22_0" index="0" speed="15.76" length="7.32" width="4.00" shape="361.42,465.26 362.26,472.53"/>
    </edge>
    <edge id=":inter_18756_23" function="internal">
        <lane id=":inter_18756_23_0" index="0" speed="4.08" length="2.00" width="4.00" shape="361.42,465.26 360.87,466.98 360.72,467.11"/>
    </edge>
    <edge id=":inter_18756_37" function="internal">
        <lane id=":inter_18756_37_0" index="0" speed="15.76" length="35.41" width="4.00" shape="362.26,472.53 362.58,475.27 360.23,484.66 354.38,493.44 345.03,501.61"/>
    </edge>
    <edge id=":inter_18756_38" function="internal">
        <lane id=":inter_18756_38_0" index="0" speed="4.08" length="3.84" width="4.00" shape="360.72,467.11 360.04,467.73 358.94,467.52 357.57,466.35"/>
    </edge>
    <edge id=":inter_18756_24" function="internal">
        <lane id=":inter_18756_24_0" index="0" speed="12.19" length="25.37" shape="338.78,492.80 343.08,488.60 345.52,483.38 346.12,477.16 344.87,469.93"/>
        <lane id=":inter_18756_24_1" index="1" speed="12.64" length="27.31" shape="338.78,492.80 344.31,487.81 347.68,482.18 348.89,475.93 347.95,469.06"/>
    </edge>
    <edge id=":inter_18756_26" function="internal">
        <lane id=":inter_18756_26_0" index="0" speed="13.89" length="50.78" shape="338.78,492.80 380.98,464.29"/>
        <lane id=":inter_18756_26_1" index="1" speed="13.89" length="50.78" shape="340.63,495.41 382.71,466.98"/>
        <lane id=":inter_18756_26_2" index="2" speed="16.67" length="50.78" width="4.00" shape="342.71,498.35 384.66,470.01"/>
    </edge>
    <edge id=":inter_18756_29" function="internal">
        <lane id=":inter_18756_29_0" index="0" speed="12.00" length="12.67" shape="342.71,498.35 353.64,492.18 353.76,492.15"/>
        <lane id=":inter_18756_29_1" index="1" speed="11.43" length="11.19" width="4.00" shape="342.71,498.35 352.55,493.00"/>
    </edge>
    <edge id=":inter_18756_31" function="internal">
        <lane id=":inter_18756_31_0" index="0" speed="4.08" length="2.02" width="4.00" shape="342.71,498.35 344.51,498.30 344.70,498.40"/>
    </edge>
    <edge id=":inter_18756_39" function="internal">
        <lane id=":inter_18756_39_0" index="0" speed="12.00" length="29.27" shape="353.76,492.15 363.18,490.48 370.77,494.20 375.82,504.26"/>
    </edge>
    <edge id=":inter_18756_40" function="internal">
        <lane id=":inter_18756_40_0" index="0" speed="11.43" length="26.74" width="4.00" shape="352.55,493.00 361.07,491.98 367.82,495.86 372.34,505.19"/>
    </edge>
    <edge id=":inter_18756_41" function="internal">
        <lane id=":inter_18756_41_0" index="0" speed="4.08" length="3.82" width="4.00" shape="344.70,498.40 345.50,498.83 345.67,499.93 345.03,501.61"/>
    </edge>
    <edge id=":inter_20870_0" function="internal">
        <lane id=":inter_20870_0_0" index="0" speed="5.90" length="9.10" shape="661.19,1617.45 659.99,1615.10 658.43,1613.98 656.52,1614.09 654.24,1615.42"/>
    </edge>
    <edge id=":inter_20870_1" function="internal">
        <lane id=":inter_20870_1_0" index="0" speed="13.89" length="42.90" shape="661.19,1617.45 648.20,1576.21"/>
        <lane id=":inter_20870_1_1" index="1" speed="13.89" length="42.90" shape="664.22,1616.40 651.28,1575.32"/>
        <lane id=":inter_20870_1_2" index="2" speed="13.89" length="42.90" shape="667.24,1615.35 654.35,1574.44"/>
        <lane id=":inter_20870_1_3" index="3" speed="13.89" length="42.90" shape="670.27,1614.31 657.43,1573.55"/>
        <lane id=":inter_20870_1_4" index="4" speed="16.67" length="42.90" width="4.00" shape="673.67,1613.13 660.89,1572.56"/>
    </edge>
    <edge id=":inter_20870_6" function="internal">
        <lane id=":inter_20870_6_0" index="0" speed="15.95" length="8.18" width="4.00" shape="673.67,1613.13 672.29,1605.06"/>
    </edge>
    <edge id=":inter_20870_7" function="internal">
        <lane id=":inter_20870_7_0" index="0" speed="4.08" length="2.02" width="4.00" shape="673.67,1613.13 674.12,1611.39 674.28,1611.23"/>
    </edge>
    <edge id=":inter_20870_33" function="internal">
        <lane id=":inter_20870_33_0" index="0" speed="15.95" length="35.36" width="4.00" shape="672.29,1605.06 671.96,1603.16 673.86,1593.51 679.35,1584.20 688.45,1575.22"/>
    </edge>
    <edge id=":inter_20870_34" function="internal">
        <lane id=":inter_20870_34_0" index="0" speed="4.08" length="3.82" width="4.00" shape="674.28,1611.23 674.90,1610.59 676.01,1610.73 677.45,1611.82"/>
    </edge>
    <edge id=":inter_20870_8" function="internal">
        <lane id=":inter_20870_8_0" index="0" speed="12.42" length="26.23" shape="695.24,1583.62 690.93,1588.33 688.61,1593.88 688.27,1600.27 689.92,1607.51"/>
        <lane id=":inter_20870_8_1" index="1" speed="12.87" length="28.19" shape="695.24,1583.62 689.75,1589.20 686.53,1595.21 685.58,1601.67 686.90,1608.55"/>
        <lane id=":inter_20870_8_2" index="2" speed="13.32" length="30.28" shape="695.24,1583.62 688.57,1590.06 684.45,1596.54 682.88,1603.06 683.87,1609.60"/>
    </edge>
    <edge id=":inter_20870_11" function="internal">
        <lane id=":inter_20870_11_0" index="0" speed="13.89" length="51.85" shape="695.24,1583.62 654.24,1615.42"/>
        <lane id=":inter_20870_11_1" index="1" speed="13.89" length="51.85" shape="693.23,1581.13 652.26,1612.91"/>
        <lane id=":inter_20870_11_2" index="2" speed="15.28" length="51.85" shape="690.97,1578.33 650.27,1610.40"/>
    </edge>
    <edge id=":inter_20870_14" function="internal">
        <lane id=":inter_20870_14_0" index="0" speed="11.93" length="9.50" shape="690.97,1578.33 682.95,1583.42"/>
        <lane id=":inter_20870_14_1" index="1" speed="11.37" length="8.42" width="4.00" shape="690.97,1578.33 683.79,1582.74"/>
    </edge>
    <edge id=":inter_20870_16" function="internal">
        <lane id=":inter_20870_16_0" index="0" speed="4.08" length="1.99" width="4.00" shape="690.97,1578.33 689.17,1578.49 689.00,1578.42"/>
    </edge>
    <edge id=":inter_20870_35" function="internal">
        <lane id=":inter_20870_35_0" index="0" speed="11.93" length="33.02" shape="682.95,1583.42 680.28,1585.12 670.66,1587.16 662.81,1583.59 657.43,1573.55"/>
    </edge>
    <edge id=":inter_20870_36" function="internal">
        <lane id=":inter_20870_36_0" index="0" speed="11.37" length="30.02" width="4.00" shape="683.79,1582.74 681.35,1584.24 672.73,1585.59 665.71,1581.86 660.89,1572.56"/>
    </edge>
    <edge id=":inter_20870_37" function="internal">
        <lane id=":inter_20870_37_0" index="0" speed="4.08" length="3.85" width="4.00" shape="689.00,1578.42 688.15,1578.03 687.91,1576.94 688.45,1575.22"/>
    </edge>
    <edge id=":inter_20870_17" function="internal">
        <lane id=":inter_20870_17_0" index="0" speed="5.81" length="9.14" shape="677.42,1567.80 678.50,1570.24 679.99,1571.41 681.88,1571.31 684.18,1569.93"/>
    </edge>
    <edge id=":inter_20870_18" function="internal">
        <lane id=":inter_20870_18_0" index="0" speed="13.89" length="41.97" shape="677.42,1567.80 689.92,1607.51"/>
        <lane id=":inter_20870_18_1" index="1" speed="13.89" length="41.97" shape="674.34,1568.68 686.90,1608.55"/>
        <lane id=":inter_20870_18_2" index="2" speed="13.89" length="41.97" shape="671.27,1569.57 683.87,1609.60"/>
        <lane id=":inter_20870_18_3" index="3" speed="13.89" length="41.97" shape="668.19,1570.45 680.85,1610.65"/>
        <lane id=":inter_20870_18_4" index="4" speed="16.67" length="41.97" width="4.00" shape="664.73,1571.45 677.45,1611.82"/>
    </edge>
    <edge id=":inter_20870_23" function="internal">
        <lane id=":inter_20870_23_0" index="0" speed="15.28" length="6.71" shape="664.73,1571.45 665.66,1578.09"/>
    </edge>
    <edge id=":inter_20870_24" function="internal">